

        *** GPGPU-Sim Simulator Version 4.0.0  [build gpgpu-sim_git-commit-90ec3399763d7c8512cfe7dc193473086c38ca38_modified_0.0] ***


GPGPU-Sim PTX: simulation mode 0 (can change with PTX_SIM_MODE_FUNC environment variable:
               1=functional simulation only, 0=detailed performance simulator)
GPGPU-Sim PTX: overriding embedded ptx with ptx file (PTX_SIM_USE_PTX_FILE is set)
GPGPU-Sim: Configuration options:

-save_embedded_ptx                      0 # saves ptx files embedded in binary as <n>.ptx
-keep                                   0 # keep intermediate files created by GPGPU-Sim when interfacing with external programs
-gpgpu_ptx_save_converted_ptxplus                    0 # Saved converted ptxplus to a file
-gpgpu_occupancy_sm_number                   70 # The SM number to pass to ptxas when getting register usage for computing GPU occupancy. This parameter is required in the config.
-ptx_opcode_latency_int      4,13,4,5,145,32 # Opcode latencies for integers <ADD,MAX,MUL,MAD,DIV,SHFL>Default 1,1,19,25,145,32
-ptx_opcode_latency_fp          4,13,4,5,39 # Opcode latencies for single precision floating points <ADD,MAX,MUL,MAD,DIV>Default 1,1,1,1,30
-ptx_opcode_latency_dp         8,19,8,8,330 # Opcode latencies for double precision floating points <ADD,MAX,MUL,MAD,DIV>Default 8,8,8,8,335
-ptx_opcode_latency_sfu                  100 # Opcode latencies for SFU instructionsDefault 8
-ptx_opcode_latency_tesnor                   64 # Opcode latencies for Tensor instructionsDefault 64
-ptx_opcode_initiation_int          2,2,2,2,8,4 # Opcode initiation intervals for integers <ADD,MAX,MUL,MAD,DIV,SHFL>Default 1,1,4,4,32,4
-ptx_opcode_initiation_fp            2,2,2,2,4 # Opcode initiation intervals for single precision floating points <ADD,MAX,MUL,MAD,DIV>Default 1,1,1,1,5
-ptx_opcode_initiation_dp          4,4,4,4,130 # Opcode initiation intervals for double precision floating points <ADD,MAX,MUL,MAD,DIV>Default 8,8,8,8,130
-ptx_opcode_initiation_sfu                    8 # Opcode initiation intervals for sfu instructionsDefault 8
-ptx_opcode_initiation_tensor                   64 # Opcode initiation intervals for tensor instructionsDefault 64
-cdp_latency         7200,8000,100,12000,1600 # CDP API latency <cudaStreamCreateWithFlags, cudaGetParameterBufferV2_init_perWarp, cudaGetParameterBufferV2_perKernel, cudaLaunchDeviceV2_init_perWarp, cudaLaunchDevicV2_perKernel>Default 7200,8000,100,12000,1600
-network_mode                           2 # Interconnection network mode
-inter_config_file                   mesh # Interconnection network config file
-icnt_in_buffer_limit                  512 # in_buffer_limit
-icnt_out_buffer_limit                  512 # out_buffer_limit
-icnt_subnets                           2 # subnets
-icnt_arbiter_algo                      1 # arbiter_algo
-icnt_verbose                           0 # inct_verbose
-icnt_grant_cycles                      1 # grant_cycles
-gpgpu_ptx_use_cuobjdump                    1 # Use cuobjdump to extract ptx and sass from binaries
-gpgpu_experimental_lib_support                    0 # Try to extract code from cuda libraries [Broken because of unknown cudaGetExportTable]
-checkpoint_option                      0 #  checkpointing flag (0 = no checkpoint)
-checkpoint_kernel                      1 #  checkpointing during execution of which kernel (1- 1st kernel)
-checkpoint_CTA                         0 #  checkpointing after # of CTA (< less than total CTA)
-resume_option                          0 #  resume flag (0 = no resume)
-resume_kernel                          0 #  Resume from which kernel (1= 1st kernel)
-resume_CTA                             0 #  resume from which CTA 
-checkpoint_CTA_t                       0 #  resume from which CTA 
-checkpoint_insn_Y                      0 #  resume from which CTA 
-gpgpu_ptx_convert_to_ptxplus                    0 # Convert SASS (native ISA) to ptxplus and run ptxplus
-gpgpu_ptx_force_max_capability                   70 # Force maximum compute capability
-gpgpu_ptx_inst_debug_to_file                    0 # Dump executed instructions' debug information to file
-gpgpu_ptx_inst_debug_file       inst_debug.txt # Executed instructions' debug output file
-gpgpu_ptx_inst_debug_thread_uid                    1 # Thread UID for executed instructions' debug output
-gpgpu_simd_model                       1 # 1 = post-dominator
-gpgpu_shader_core_pipeline              2048:32 # shader core pipeline config, i.e., {<nthread>:<warpsize>}
-gpgpu_tex_cache:l1  N:4:128:256,L:R:m:N:L,T:512:8,128:2 # per-shader L1 texture cache  (READ-ONLY) config  {<nsets>:<bsize>:<assoc>,<rep>:<wr>:<alloc>:<wr_alloc>,<mshr>:<N>:<merge>,<mq>:<rf>}
-gpgpu_const_cache:l1 N:128:64:8,L:R:f:N:L,S:2:64,4 # per-shader L1 constant memory cache  (READ-ONLY) config  {<nsets>:<bsize>:<assoc>,<rep>:<wr>:<alloc>:<wr_alloc>,<mshr>:<N>:<merge>,<mq>} 
-gpgpu_cache:il1     N:64:128:16,L:R:f:N:L,S:2:48,4 # shader L1 instruction cache config  {<nsets>:<bsize>:<assoc>,<rep>:<wr>:<alloc>:<wr_alloc>,<mshr>:<N>:<merge>,<mq>} 
-gpgpu_cache:dl1     S:1:128:256,L:L:s:N:L,A:256:8,16:0,32 # per-shader L1 data cache config  {<nsets>:<bsize>:<assoc>,<rep>:<wr>:<alloc>:<wr_alloc>,<mshr>:<N>:<merge>,<mq> | none}
-gpgpu_l1_banks                         4 # The number of L1 cache banks
-gpgpu_l1_banks_byte_interleaving                   32 # l1 banks byte interleaving granularity
-gpgpu_l1_banks_hashing_function                    0 # l1 banks hashing function
-gpgpu_l1_latency                      20 # L1 Hit Latency
-gpgpu_smem_latency                    20 # smem Latency
-gpgpu_cache:dl1PrefL1                 none # per-shader L1 data cache config  {<nsets>:<bsize>:<assoc>,<rep>:<wr>:<alloc>:<wr_alloc>,<mshr>:<N>:<merge>,<mq> | none}
-gpgpu_cache:dl1PrefShared                 none # per-shader L1 data cache config  {<nsets>:<bsize>:<assoc>,<rep>:<wr>:<alloc>:<wr_alloc>,<mshr>:<N>:<merge>,<mq> | none}
-gpgpu_gmem_skip_L1D                    0 # global memory access skip L1D cache (implements -Xptxas -dlcm=cg, default=no skip)
-gpgpu_perfect_mem                      0 # enable perfect memory mode (no cache miss)
-n_regfile_gating_group                    4 # group of lanes that should be read/written together)
-gpgpu_clock_gated_reg_file                    0 # enable clock gated reg file for power calculations
-gpgpu_clock_gated_lanes                    0 # enable clock gated lanes for power calculations
-gpgpu_shader_registers                65536 # Number of registers per shader core. Limits number of concurrent CTAs. (default 8192)
-gpgpu_registers_per_block                65536 # Maximum number of registers per CTA. (default 8192)
-gpgpu_ignore_resources_limitation                    0 # gpgpu_ignore_resources_limitation (default 0)
-gpgpu_shader_cta                      32 # Maximum number of concurrent CTAs in shader (default 8)
-gpgpu_num_cta_barriers                   16 # Maximum number of named barriers per CTA (default 16)
-gpgpu_n_clusters                      40 # number of processing clusters
-gpgpu_n_cores_per_cluster                    2 # number of simd cores per cluster
-gpgpu_n_cluster_ejection_buffer_size                   32 # number of packets in ejection buffer
-gpgpu_n_ldst_response_buffer_size                    2 # number of response packets in ld/st unit ejection buffer
-gpgpu_shmem_per_block                65536 # Size of shared memory per thread block or CTA (default 48kB)
-gpgpu_shmem_size                   98304 # Size of shared memory per shader core (default 16kB)
-gpgpu_adaptive_cache_config                    1 # adaptive_cache_config
-gpgpu_shmem_sizeDefault                98304 # Size of shared memory per shader core (default 16kB)
-gpgpu_shmem_size_PrefL1                16384 # Size of shared memory per shader core (default 16kB)
-gpgpu_shmem_size_PrefShared                16384 # Size of shared memory per shader core (default 16kB)
-gpgpu_shmem_num_banks                   32 # Number of banks in the shared memory in each shader core (default 16)
-gpgpu_shmem_limited_broadcast                    0 # Limit shared memory to do one broadcast per cycle (default on)
-gpgpu_shmem_warp_parts                    1 # Number of portions a warp is divided into for shared memory bank conflict check 
-gpgpu_mem_unit_ports                    1 # The number of memory transactions allowed per core cycle
-gpgpu_shmem_warp_parts                    1 # Number of portions a warp is divided into for shared memory bank conflict check 
-gpgpu_warpdistro_shader                   -1 # Specify which shader core to collect the warp size distribution from
-gpgpu_warp_issue_shader                    0 # Specify which shader core to collect the warp issue distribution from
-gpgpu_local_mem_map                    1 # Mapping from local memory space address to simulated GPU physical address space (default = enabled)
-gpgpu_num_reg_banks                    8 # Number of register banks (default = 8)
-gpgpu_reg_bank_use_warp_id                    0 # Use warp ID in mapping registers to banks (default = off)
-gpgpu_sub_core_model                    1 # Sub Core Volta/Pascal model (default = off)
-gpgpu_enable_specialized_operand_collector                    0 # enable_specialized_operand_collector
-gpgpu_operand_collector_num_units_sp                    4 # number of collector units (default = 4)
-gpgpu_operand_collector_num_units_dp                    0 # number of collector units (default = 0)
-gpgpu_operand_collector_num_units_sfu                    4 # number of collector units (default = 4)
-gpgpu_operand_collector_num_units_int                    0 # number of collector units (default = 0)
-gpgpu_operand_collector_num_units_tensor_core                    4 # number of collector units (default = 4)
-gpgpu_operand_collector_num_units_mem                    2 # number of collector units (default = 2)
-gpgpu_operand_collector_num_units_gen                    8 # number of collector units (default = 0)
-gpgpu_operand_collector_num_in_ports_sp                    1 # number of collector unit in ports (default = 1)
-gpgpu_operand_collector_num_in_ports_dp                    0 # number of collector unit in ports (default = 0)
-gpgpu_operand_collector_num_in_ports_sfu                    1 # number of collector unit in ports (default = 1)
-gpgpu_operand_collector_num_in_ports_int                    0 # number of collector unit in ports (default = 0)
-gpgpu_operand_collector_num_in_ports_tensor_core                    1 # number of collector unit in ports (default = 1)
-gpgpu_operand_collector_num_in_ports_mem                    1 # number of collector unit in ports (default = 1)
-gpgpu_operand_collector_num_in_ports_gen                    8 # number of collector unit in ports (default = 0)
-gpgpu_operand_collector_num_out_ports_sp                    1 # number of collector unit in ports (default = 1)
-gpgpu_operand_collector_num_out_ports_dp                    0 # number of collector unit in ports (default = 0)
-gpgpu_operand_collector_num_out_ports_sfu                    1 # number of collector unit in ports (default = 1)
-gpgpu_operand_collector_num_out_ports_int                    0 # number of collector unit in ports (default = 0)
-gpgpu_operand_collector_num_out_ports_tensor_core                    1 # number of collector unit in ports (default = 1)
-gpgpu_operand_collector_num_out_ports_mem                    1 # number of collector unit in ports (default = 1)
-gpgpu_operand_collector_num_out_ports_gen                    8 # number of collector unit in ports (default = 0)
-gpgpu_coalesce_arch                   60 # Coalescing arch (GT200 = 13, Fermi = 20)
-gpgpu_num_sched_per_core                    4 # Number of warp schedulers per core
-gpgpu_max_insn_issue_per_warp                    1 # Max number of instructions that can be issued per warp in one cycle by scheduler (either 1 or 2)
-gpgpu_dual_issue_diff_exec_units                    1 # should dual issue use two different execution unit resources (Default = 1)
-gpgpu_simt_core_sim_order                    1 # Select the simulation order of cores in a cluster (0=Fix, 1=Round-Robin)
-gpgpu_pipeline_widths 4,4,4,4,4,4,4,4,4,4,8,4,4 # Pipeline widths ID_OC_SP,ID_OC_DP,ID_OC_INT,ID_OC_SFU,ID_OC_MEM,OC_EX_SP,OC_EX_DP,OC_EX_INT,OC_EX_SFU,OC_EX_MEM,EX_WB,ID_OC_TENSOR_CORE,OC_EX_TENSOR_CORE
-gpgpu_tensor_core_avail                    1 # Tensor Core Available (default=0)
-gpgpu_num_sp_units                     4 # Number of SP units (default=1)
-gpgpu_num_dp_units                     4 # Number of DP units (default=0)
-gpgpu_num_int_units                    4 # Number of INT units (default=0)
-gpgpu_num_sfu_units                    4 # Number of SF units (default=1)
-gpgpu_num_tensor_core_units                    4 # Number of tensor_core units (default=1)
-gpgpu_num_mem_units                    1 # Number if ldst units (default=1) WARNING: not hooked up to anything
-gpgpu_scheduler                      gto # Scheduler configuration: < lrr | gto | two_level_active > If two_level_active:<num_active_warps>:<inner_prioritization>:<outer_prioritization>For complete list of prioritization values see shader.h enum scheduler_prioritization_typeDefault: gto
-gpgpu_concurrent_kernel_sm                    0 # Support concurrent kernels on a SM (default = disabled)
-gpgpu_perfect_inst_const_cache                    1 # perfect inst and const cache mode, so all inst and const hits in the cache(default = disabled)
-gpgpu_inst_fetch_throughput                    4 # the number of fetched intruction per warp each cycle
-gpgpu_reg_file_port_throughput                    2 # the number ports of the register file
-specialized_unit_1         0,4,4,4,4,BRA # specialized unit config {<enabled>,<num_units>:<latency>:<initiation>,<ID_OC_SPEC>:<OC_EX_SPEC>,<NAME>}
-specialized_unit_2         0,4,4,4,4,BRA # specialized unit config {<enabled>,<num_units>:<latency>:<initiation>,<ID_OC_SPEC>:<OC_EX_SPEC>,<NAME>}
-specialized_unit_3         0,4,4,4,4,BRA # specialized unit config {<enabled>,<num_units>:<latency>:<initiation>,<ID_OC_SPEC>:<OC_EX_SPEC>,<NAME>}
-specialized_unit_4         0,4,4,4,4,BRA # specialized unit config {<enabled>,<num_units>:<latency>:<initiation>,<ID_OC_SPEC>:<OC_EX_SPEC>,<NAME>}
-specialized_unit_5         0,4,4,4,4,BRA # specialized unit config {<enabled>,<num_units>:<latency>:<initiation>,<ID_OC_SPEC>:<OC_EX_SPEC>,<NAME>}
-specialized_unit_6         0,4,4,4,4,BRA # specialized unit config {<enabled>,<num_units>:<latency>:<initiation>,<ID_OC_SPEC>:<OC_EX_SPEC>,<NAME>}
-specialized_unit_7         0,4,4,4,4,BRA # specialized unit config {<enabled>,<num_units>:<latency>:<initiation>,<ID_OC_SPEC>:<OC_EX_SPEC>,<NAME>}
-specialized_unit_8         0,4,4,4,4,BRA # specialized unit config {<enabled>,<num_units>:<latency>:<initiation>,<ID_OC_SPEC>:<OC_EX_SPEC>,<NAME>}
-gpgpu_perf_sim_memcpy                    1 # Fill the L2 cache on memcpy
-gpgpu_simple_dram_model                    0 # simple_dram_model with fixed latency and BW
-gpgpu_dram_scheduler                    1 # 0 = fifo, 1 = FR-FCFS (defaul)
-gpgpu_dram_partition_queues          64:64:64:64 # i2$:$2d:d2$:$2i
-l2_ideal                               0 # Use a ideal L2 cache that always hit
-gpgpu_cache:dl2     S:32:128:24,L:B:m:L:P,A:192:4,32:0,32 # unified banked L2 data cache config  {<nsets>:<bsize>:<assoc>,<rep>:<wr>:<alloc>:<wr_alloc>,<mshr>:<N>:<merge>,<mq>}
-gpgpu_cache:dl2_texture_only                    0 # L2 cache used for texture only
-gpgpu_n_mem                           24 # number of memory modules (e.g. memory controllers) in gpu
-gpgpu_n_sub_partition_per_mchannel                    2 # number of memory subpartition in each memory module
-gpgpu_n_mem_per_ctrlr                    1 # number of memory chips per memory controller
-gpgpu_memlatency_stat                   14 # track and display latency statistics 0x2 enables MC, 0x4 enables queue logs
-gpgpu_frfcfs_dram_sched_queue_size                   64 # 0 = unlimited (default); # entries per chip
-gpgpu_dram_return_queue_size                  192 # 0 = unlimited (default); # entries per chip
-gpgpu_dram_buswidth                   16 # default = 4 bytes (8 bytes per cycle at DDR)
-gpgpu_dram_burst_length                    2 # Burst length of each DRAM request (default = 4 data bus cycle)
-dram_data_command_freq_ratio                    2 # Frequency ratio between DRAM data bus and command bus (default = 2 times, i.e. DDR)
-gpgpu_dram_timing_opt nbk=16:CCD=1:RRD=3:RCD=12:RAS=28:RP=12:RC=40: CL=12:WL=2:CDLR=3:WR=10:nbkgrp=4:CCDL=2:RTPL=3 # DRAM timing parameters = {nbk:tCCD:tRRD:tRCD:tRAS:tRP:tRC:CL:WL:tCDLR:tWR:nbkgrp:tCCDL:tRTPL}
-gpgpu_l2_rop_latency                  160 # ROP queue latency (default 85)
-dram_latency                         100 # DRAM latency (default 30)
-dram_dual_bus_interface                  257 # dual_bus_interface (default = 0) 
-dram_bnk_indexing_policy                    1 # dram_bnk_indexing_policy (0 = normal indexing, 1 = Xoring with the higher bits) (Default = 0)
-dram_bnkgrp_indexing_policy                    1 # dram_bnkgrp_indexing_policy (0 = take higher bits, 1 = take lower bits) (Default = 0)
-dram_seperate_write_queue_enable                    1 # Seperate_Write_Queue_Enable
-dram_write_queue_size           128:108:32 # Write_Queue_Size
-dram_elimnate_rw_turnaround                    0 # elimnate_rw_turnaround i.e set tWTR and tRTW = 0
-icnt_flit_size                        40 # icnt_flit_size
-gpgpu_mem_addr_mapping dramid@8;00000000.00000000.00000000.00000000.0000RRRR.RRRRRRRR.RBBBCCCB.CCCSSSSS # mapping memory address to dram model {dramid@<start bit>;<memory address map>}
-gpgpu_mem_addr_test                    0 # run sweep test to check address mapping for aliased address
-gpgpu_mem_address_mask                    1 # 0 = old addressing mask, 1 = new addressing mask, 2 = new add. mask + flipped bank sel and chip sel bits
-gpgpu_memory_partition_indexing                    2 # 0 = no indexing, 1 = bitwise xoring, 2 = IPoly, 3 = custom indexing
-gpuwattch_xml_file         gpuwattch.xml # GPUWattch XML file
-power_simulation_enabled                    0 # Turn on power simulator (1=On, 0=Off)
-power_per_cycle_dump                    0 # Dump detailed power output each cycle
-power_trace_enabled                    0 # produce a file for the power trace (1=On, 0=Off)
-power_trace_zlevel                     6 # Compression level of the power trace output log (0=no comp, 9=highest)
-steady_power_levels_enabled                    0 # produce a file for the steady power levels (1=On, 0=Off)
-steady_state_definition                  8:4 # allowed deviation:number of samples
-gpgpu_max_cycle                        0 # terminates gpu simulation early (0 = no limit)
-gpgpu_max_insn                 100000000 # terminates gpu simulation early (0 = no limit)
-gpgpu_max_cta                          0 # terminates gpu simulation early (0 = no limit)
-gpgpu_max_completed_cta                    0 # terminates gpu simulation early (0 = no limit)
-gpgpu_runtime_stat                   500 # display runtime statistics such as dram utilization {<freq>:<flag>}
-liveness_message_freq                    1 # Minimum number of seconds between simulation liveness messages (0 = always print)
-gpgpu_compute_capability_major                    7 # Major compute capability version number
-gpgpu_compute_capability_minor                    0 # Minor compute capability version number
-gpgpu_flush_l1_cache                    1 # Flush L1 cache at the end of each kernel call
-gpgpu_flush_l2_cache                    0 # Flush L2 cache at the end of each kernel call
-gpgpu_deadlock_detect                    1 # Stop the simulation at deadlock (1=on (default), 0=off)
-gpgpu_ptx_instruction_classification                    0 # if enabled will classify ptx instruction types per kernel (Max 255 kernels now)
-gpgpu_ptx_sim_mode                     0 # Select between Performance (default) or Functional simulation (1)
-gpgpu_clock_domains 1200.0:1200.0:1200.0:850.0 # Clock Domain Frequencies in MhZ {<Core Clock>:<ICNT Clock>:<L2 Clock>:<DRAM Clock>}
-gpgpu_max_concurrent_kernel                    8 # maximum kernels that can run concurrently on GPU
-gpgpu_cflog_interval                    0 # Interval between each snapshot in control flow logger
-visualizer_enabled                     0 # Turn on visualizer output (1=On, 0=Off)
-visualizer_outputfile                 NULL # Specifies the output log file for visualizer
-visualizer_zlevel                      6 # Compression level of the visualizer output log (0=no comp, 9=highest)
-gpgpu_stack_size_limit                 1024 # GPU thread stack size
-gpgpu_heap_size_limit              8388608 # GPU malloc heap size 34d8dad98b55ee7ec7d41e3675093f3e  /root/gpgpu-sim_distribution/test/ISPASS/ISPASS/NN/ispass-2009-NN
Extracting PTX file and ptxas options    1: ispass-2009-NN.1.sm_30.ptx -arch=sm_30
Extracting PTX file and ptxas options    2: ispass-2009-NN.2.sm_35.ptx -arch=sm_35
Extracting PTX file and ptxas options    3: ispass-2009-NN.3.sm_50.ptx -arch=sm_50
Extracting PTX file and ptxas options    4: ispass-2009-NN.4.sm_60.ptx -arch=sm_60
Extracting PTX file and ptxas options    5: ispass-2009-NN.5.sm_62.ptx -arch=sm_62

-gpgpu_runtime_sync_depth_limit                    2 # GPU device runtime synchronize depth
-gpgpu_runtime_pending_launch_count_limit                 2048 # GPU device runtime pending launch count
-trace_enabled                          0 # Turn on traces
-trace_components                    none # comma seperated list of traces to enable. Complete list found in trace_streams.tup. Default none
-trace_sampling_core                    0 # The core which is printed using CORE_DPRINTF. Default 0
-trace_sampling_memory_partition                   -1 # The memory partition which is printed using MEMPART_DPRINTF. Default -1 (i.e. all)
-enable_ptx_file_line_stats                    1 # Turn on PTX source line statistic profiling. (1 = On)
-ptx_line_stats_filename gpgpu_inst_stats.txt # Output file for PTX source line statistics.
-gpgpu_kernel_launch_latency                    0 # Kernel launch latency in cycles. Default: 0
-gpgpu_cdp_enabled                      0 # Turn on CDP
-gpgpu_TB_launch_latency                    0 # thread block launch latency in cycles. Default: 0
DRAM Timing Options:
nbk                                    16 # number of banks
CCD                                     1 # column to column delay
RRD                                     3 # minimal delay between activation of rows in different banks
RCD                                    12 # row to column delay
RAS                                    28 # time needed to activate row
RP                                     12 # time needed to precharge (deactivate) row
RC                                     40 # row cycle time
CDLR                                    3 # switching from write to read (changes tWTR)
WR                                     10 # last data-in to row precharge
CL                                     12 # CAS latency
WL                                      2 # Write latency
nbkgrp                                  4 # number of bank groups
CCDL                                    2 # column to column delay between accesses to different bank groups
RTPL                                    3 # read to precharge delay between accesses to different bank groups
Total number of memory sub partition = 48
addr_dec_mask[CHIP]  = 0000000000000000 	high:64 low:0
addr_dec_mask[BK]    = 0000000000007100 	high:15 low:8
addr_dec_mask[ROW]   = 000000000fff8000 	high:28 low:15
addr_dec_mask[COL]   = 0000000000000eff 	high:12 low:0
addr_dec_mask[BURST] = 000000000000001f 	high:5 low:0
sub_partition_id_mask = 0000000000000100
GPGPU-Sim uArch: clock freqs: 1200000000.000000:1200000000.000000:1200000000.000000:850000000.000000
GPGPU-Sim uArch: clock periods: 0.00000000083333333333:0.00000000083333333333:0.00000000083333333333:0.00000000117647058824
*** Initializing Memory Statistics ***
GPGPU-Sim uArch: performance model initialization complete.
self exe links to: /root/gpgpu-sim_distribution/test/ISPASS/ISPASS/NN/ispass-2009-NN
self exe links to: /root/gpgpu-sim_distribution/test/ISPASS/ISPASS/NN/ispass-2009-NN
10.1
GPGPU-Sim PTX: __cudaRegisterFatBinary, fat_cubin_handle = 1, filename=default
self exe links to: /root/gpgpu-sim_distribution/test/ISPASS/ISPASS/NN/ispass-2009-NN
Running md5sum using "md5sum /root/gpgpu-sim_distribution/test/ISPASS/ISPASS/NN/ispass-2009-NN "
self exe links to: /root/gpgpu-sim_distribution/test/ISPASS/ISPASS/NN/ispass-2009-NN
Extracting specific PTX file named ispass-2009-NN.1.sm_30.ptx 
Extracting specific PTX file named ispass-2009-NN.2.sm_35.ptx 
Extracting specific PTX file named ispass-2009-NN.3.sm_50.ptx 
Extracting specific PTX file named ispass-2009-NN.4.sm_60.ptx 
Extracting specific PTX file named ispass-2009-NN.5.sm_62.ptx 
GPGPU-Sim PTX: __cudaRegisterFunction _Z18executeFourthLayerPfS_S_ : hostFun 0x0x401a90, fat_cubin_handle = 1
GPGPU-Sim PTX: Parsing ispass-2009-NN.1.sm_30.ptx
GPGPU-Sim PTX: allocating constant region for "kernelTemplate" from 0x100 to 0x164 (global memory space) 1
GPGPU-Sim PTX: allocating constant region for "kernelTemplate2" from 0x180 to 0x1e4 (global memory space) 2
GPGPU-Sim PTX: instruction assembly for function '_Z17executeFirstLayerPfS_S_'...   done.
GPGPU-Sim PTX: instruction assembly for function '_Z18executeSecondLayerPfS_S_'...   done.
GPGPU-Sim PTX: instruction assembly for function '_Z17executeThirdLayerPfS_S_'...   done.
GPGPU-Sim PTX: instruction assembly for function '_Z18executeFourthLayerPfS_S_'...   done.
GPGPU-Sim PTX: finished parsing EMBEDDED .ptx file ispass-2009-NN.1.sm_30.ptx
GPGPU-Sim PTX: Parsing ispass-2009-NN.2.sm_35.ptx
GPGPU-Sim PTX: Warning kernelTemplate was declared previous at ispass-2009-NN.1.sm_30.ptx:14 skipping new declaration
GPGPU-Sim PTX: Warning kernelTemplate2 was declared previous at ispass-2009-NN.1.sm_30.ptx:15 skipping new declaration
GPGPU-Sim PTX: Warning %p0 was declared previous at ispass-2009-NN.1.sm_30.ptx:23 skipping new declaration
GPGPU-Sim PTX: Warning %p1 was declared previous at ispass-2009-NN.1.sm_30.ptx:23 skipping new declaration
GPGPU-Sim PTX: Warning %p2 was declared previous at ispass-2009-NN.1.sm_30.ptx:23 skipping new declaration
GPGPU-Sim PTX: Warning %p3 was declared previous at ispass-2009-NN.1.sm_30.ptx:23 skipping new declaration
GPGPU-Sim PTX: Warning %f0 was declared previous at ispass-2009-NN.1.sm_30.ptx:24 skipping new declaration
GPGPU-Sim PTX: Warning %f1 was declared previous at ispass-2009-NN.1.sm_30.ptx:24 skipping new declaration
GPGPU-Sim PTX: Warning %f2 was declared previous at ispass-2009-NN.1.sm_30.ptx:24 skipping new declaration
GPGPU-Sim PTX: Warning %f3 was declared previous at ispass-2009-NN.1.sm_30.ptx:24 skipping new declaration
GPGPU-Sim PTX: Warning %f4 was declared previous at ispass-2009-NN.1.sm_30.ptx:24 skipping new declaration
GPGPU-Sim PTX: Warning %f5 was declared previous at ispass-2009-NN.1.sm_30.ptx:24 skipping new declaration
GPGPU-Sim PTX: Warning %f6 was declared previous at ispass-2009-NN.1.sm_30.ptx:24 skipping new declaration
GPGPU-Sim PTX: Warning %f7 was declared previous at ispass-2009-NN.1.sm_30.ptx:24 skipping new declaration
GPGPU-Sim PTX: Warning %f8 was declared previous at ispass-2009-NN.1.sm_30.ptx:24 skipping new declaration
GPGPU-Sim PTX: Warning %f9 was declared previous at ispass-2009-NN.1.sm_30.ptx:24 skipping new declaration
GPGPU-Sim PTX: Warning %f10 was declared previous at ispass-2009-NN.1.sm_30.ptx:24 skipping new declaration
GPGPU-Sim PTX: Warning %f11 was declared previous at ispass-2009-NN.1.sm_30.ptx:24 skipping new declaration
GPGPU-Sim PTX: Warning %f12 was declared previous at ispass-2009-NN.1.sm_30.ptx:24 skipping new declaration
GPGPU-Sim PTX: Warning %f13 was declared previous at ispass-2009-NN.1.sm_30.ptx:24 skipping new declaration
GPGPU-Sim PTX: Warning %f14 was declared previous at ispass-2009-NN.1.sm_30.ptx:24 skipping new declaration
GPGPU-Sim PTX: Warning %f15 was declared previous at ispass-2009-NN.1.sm_30.ptx:24 skipping new declaration
GPGPU-Sim PTX: Warning %f16 was declared previous at ispass-2009-NN.1.sm_30.ptx:24 skipping new declaration
GPGPU-Sim PTX: Warning %f17 was declared previous at ispass-2009-NN.1.sm_30.ptx:24 skipping new declaration
GPGPU-Sim PTX: Warning %f18 was declared previous at ispass-2009-NN.1.sm_30.ptx:24 skipping new declaration
GPGPU-Sim PTX: Warning %f19 was declared previous at ispass-2009-NN.1.sm_30.ptx:24 skipping new declaration
GPGPU-Sim PTX: Warning %f20 was declared previous at ispass-2009-NN.1.sm_30.ptx:24 skipping new declaration
GPGPU-Sim PTX: Warning %f21 was declared previous at ispass-2009-NN.1.sm_30.ptx:24 skipping new declaration
GPGPU-Sim PTX: Warning %f22 was declared previous at ispass-2009-NN.1.sm_30.ptx:24 skipping new declaration
GPGPU-Sim PTX: Warning %f23 was declared previous at ispass-2009-NN.1.sm_30.ptx:24 skipping new declaration
GPGPU-Sim PTX: Warning %f24 was declared previous at ispass-2009-NN.1.sm_30.ptx:24 skipping new declaration
GPGPU-Sim PTX: Warning %f25 was declared previous at ispass-2009-NN.1.sm_30.ptx:24 skipping new declaration
GPGPU-Sim PTX: Warning %f26 was declared previous at ispass-2009-NN.1.sm_30.ptx:24 skipping new declaration
GPGPU-Sim PTX: Warning %f27 was declared previous at ispass-2009-NN.1.sm_30.ptx:24 skipping new declaration
GPGPU-Sim PTX: Warning %f28 was declared previous at ispass-2009-NN.1.sm_30.ptx:24 skipping new declaration
GPGPU-Sim PTX: Warning %f29 was declared previous at ispass-2009-NN.1.sm_30.ptx:24 skipping new declaration
GPGPU-Sim PTX: Warning %f30 was declared previous at ispass-2009-NN.1.sm_30.ptx:24 skipping new declaration
GPGPU-Sim PTX: Warning %f31 was declared previous at ispass-2009-NN.1.sm_30.ptx:24 skipping new declaration
GPGPU-Sim PTX: Warning %f32 was declared previous at ispass-2009-NN.1.sm_30.ptx:24 skipping new declaration
GPGPU-Sim PTX: Warning %f33 was declared previous at ispass-2009-NN.1.sm_30.ptx:24 skipping new declaration
GPGPU-Sim PTX: Warning %f34 was declared previous at ispass-2009-NN.1.sm_30.ptx:24 skipping new declaration
GPGPU-Sim PTX: Warning %f35 was declared previous at ispass-2009-NN.1.sm_30.ptx:24 skipping new declaration
GPGPU-Sim PTX: Warning %f36 was declared previous at ispass-2009-NN.1.sm_30.ptx:24 skipping new declaration
GPGPU-Sim PTX: Warning %f37 was declared previous at ispass-2009-NN.1.sm_30.ptx:24 skipping new declaration
GPGPU-Sim PTX: Warning %f38 was declared previous at ispass-2009-NN.1.sm_30.ptx:24 skipping new declaration
GPGPU-Sim PTX: Warning %f39 was declared previous at ispass-2009-NN.1.sm_30.ptx:24 skipping new declaration
GPGPU-Sim PTX: Warning %f40 was declared previous at ispass-2009-NN.1.sm_30.ptx:24 skipping new declaration
GPGPU-Sim PTX: Warning %f41 was declared previous at ispass-2009-NN.1.sm_30.ptx:24 skipping new declaration
GPGPU-Sim PTX: Warning %f42 was declared previous at ispass-2009-NN.1.sm_30.ptx:24 skipping new declaration
GPGPU-Sim PTX: Warning %f43 was declared previous at ispass-2009-NN.1.sm_30.ptx:24 skipping new declaration
GPGPU-Sim PTX: Warning %f44 was declared previous at ispass-2009-NN.1.sm_30.ptx:24 skipping new declaration
GPGPU-Sim PTX: Warning %f45 was declared previous at ispass-2009-NN.1.sm_30.ptx:24 skipping new declaration
GPGPU-Sim PTX: Warning %f46 was declared previous at ispass-2009-NN.1.sm_30.ptx:24 skipping new declaration
GPGPU-Sim PTX: Warning %f47 was declared previous at ispass-2009-NN.1.sm_30.ptx:24 skipping new declaration
GPGPU-Sim PTX: Warning %f48 was declared previous at ispass-2009-NN.1.sm_30.ptx:24 skipping new declaration
GPGPU-Sim PTX: Warning %f49 was declared previous at ispass-2009-NN.1.sm_30.ptx:24 skipping new declaration
GPGPU-Sim PTX: Warning %f50 was declared previous at ispass-2009-NN.1.sm_30.ptx:24 skipping new declaration
GPGPU-Sim PTX: Warning %f51 was declared previous at ispass-2009-NN.1.sm_30.ptx:24 skipping new declaration
GPGPU-Sim PTX: Warning %f52 was declared previous at ispass-2009-NN.1.sm_30.ptx:24 skipping new declaration
GPGPU-Sim PTX: Warning %f53 was declared previous at ispass-2009-NN.1.sm_30.ptx:24 skipping new declaration
GPGPU-Sim PTX: Warning %f54 was declared previous at ispass-2009-NN.1.sm_30.ptx:24 skipping new declaration
GPGPU-Sim PTX: Warning %f55 was declared previous at ispass-2009-NN.1.sm_30.ptx:24 skipping new declaration
GPGPU-Sim PTX: Warning %f56 was declared previous at ispass-2009-NN.1.sm_30.ptx:24 skipping new declaration
GPGPU-Sim PTX: Warning %f57 was declared previous at ispass-2009-NN.1.sm_30.ptx:24 skipping new declaration
GPGPU-Sim PTX: Warning %f58 was declared previous at ispass-2009-NN.1.sm_30.ptx:24 skipping new declaration
GPGPU-Sim PTX: Warning %f59 was declared previous at ispass-2009-NN.1.sm_30.ptx:24 skipping new declaration
GPGPU-Sim PTX: Warning %f60 was declared previous at ispass-2009-NN.1.sm_30.ptx:24 skipping new declaration
GPGPU-Sim PTX: Warning %f61 was declared previous at ispass-2009-NN.1.sm_30.ptx:24 skipping new declaration
GPGPU-Sim PTX: Warning %f62 was declared previous at ispass-2009-NN.1.sm_30.ptx:24 skipping new declaration
GPGPU-Sim PTX: Warning %f63 was declared previous at ispass-2009-NN.1.sm_30.ptx:24 skipping new declaration
GPGPU-Sim PTX: Warning %f64 was declared previous at ispass-2009-NN.1.sm_30.ptx:24 skipping new declaration
GPGPU-Sim PTX: Warning %f65 was declared previous at ispass-2009-NN.1.sm_30.ptx:24 skipping new declaration
GPGPU-Sim PTX: Warning %f66 was declared previous at ispass-2009-NN.1.sm_30.ptx:24 skipping new declaration
GPGPU-Sim PTX: Warning %f67 was declared previous at ispass-2009-NN.1.sm_30.ptx:24 skipping new declaration
GPGPU-Sim PTX: Warning %f68 was declared previous at ispass-2009-NN.1.sm_30.ptx:24 skipping new declaration
GPGPU-Sim PTX: Warning %f69 was declared previous at ispass-2009-NN.1.sm_30.ptx:24 skipping new declaration
GPGPU-Sim PTX: Warning %f70 was declared previous at ispass-2009-NN.1.sm_30.ptx:24 skipping new declaration
GPGPU-Sim PTX: Warning %f71 was declared previous at ispass-2009-NN.1.sm_30.ptx:24 skipping new declaration
GPGPU-Sim PTX: Warning %f72 was declared previous at ispass-2009-NN.1.sm_30.ptx:24 skipping new declaration
GPGPU-Sim PTX: Warning %f73 was declared previous at ispass-2009-NN.1.sm_30.ptx:24 skipping new declaration
GPGPU-Sim PTX: Warning %f74 was declared previous at ispass-2009-NN.1.sm_30.ptx:24 skipping new declaration
GPGPU-Sim PTX: Warning %f75 was declared previous at ispass-2009-NN.1.sm_30.ptx:24 skipping new declaration
GPGPU-Sim PTX: Warning %f76 was declared previous at ispass-2009-NN.1.sm_30.ptx:24 skipping new declaration
GPGPU-Sim PTX: Warning %f77 was declared previous at ispass-2009-NN.1.sm_30.ptx:24 skipping new declaration
GPGPU-Sim PTX: Warning %f78 was declared previous at ispass-2009-NN.1.sm_30.ptx:24 skipping new declaration
GPGPU-Sim PTX: Warning %f79 was declared previous at ispass-2009-NN.1.sm_30.ptx:24 skipping new declaration
GPGPU-Sim PTX: Warning %f80 was declared previous at ispass-2009-NN.1.sm_30.ptx:24 skipping new declaration
GPGPU-Sim PTX: Warning %f81 was declared previous at ispass-2009-NN.1.sm_30.ptx:24 skipping new declaration
GPGPU-Sim PTX: Warning %f82 was declared previous at ispass-2009-NN.1.sm_30.ptx:24 skipping new declaration
GPGPU-Sim PTX: Warning %f83 was declared previous at ispass-2009-NN.1.sm_30.ptx:24 skipping new declaration
GPGPU-Sim PTX: Warning %f84 was declared previous at ispass-2009-NN.1.sm_30.ptx:24 skipping new declaration
GPGPU-Sim PTX: Warning %f85 was declared previous at ispass-2009-NN.1.sm_30.ptx:24 skipping new declaration
GPGPU-Sim PTX: Warning %f86 was declared previous at ispass-2009-NN.1.sm_30.ptx:24 skipping new declaration
GPGPU-Sim PTX: Warning %f87 was declared previous at ispass-2009-NN.1.sm_30.ptx:24 skipping new declaration
GPGPU-Sim PTX: Warning %f88 was declared previous at ispass-2009-NN.1.sm_30.ptx:24 skipping new declaration
GPGPU-Sim PTX: Warning %f89 was declared previous at ispass-2009-NN.1.sm_30.ptx:24 skipping new declaration
GPGPU-Sim PTX: Warning %f90 was declared previous at ispass-2009-NN.1.sm_30.ptx:24 skipping new declaration
GPGPU-Sim PTX: Warning %f91 was declared previous at ispass-2009-NN.1.sm_30.ptx:24 skipping new declaration
GPGPU-Sim PTX: Warning %f92 was declared previous at ispass-2009-NN.1.sm_30.ptx:24 skipping new declaration
GPGPU-Sim PTX: Warning %f93 was declared previous at ispass-2009-NN.1.sm_30.ptx:24 skipping new declaration
GPGPU-Sim PTX: Warning %f94 was declared previous at ispass-2009-NN.1.sm_30.ptx:24 skipping new declaration
GPGPU-Sim PTX: Warning %f95 was declared previous at ispass-2009-NN.1.sm_30.ptx:24 skipping new declaration
GPGPU-Sim PTX: Warning %f96 was declared previous at ispass-2009-NN.1.sm_30.ptx:24 skipping new declaration
GPGPU-Sim PTX: Warning %f97 was declared previous at ispass-2009-NN.1.sm_30.ptx:24 skipping new declaration
GPGPU-Sim PTX: Warning %f98 was declared previous at ispass-2009-NN.1.sm_30.ptx:24 skipping new declaration
GPGPU-Sim PTX: Warning %f99 was declared previous at ispass-2009-NN.1.sm_30.ptx:24 skipping new declaration
GPGPU-Sim PTX: Warning %f100 was declared previous at ispass-2009-NN.1.sm_30.ptx:24 skipping new declaration
GPGPU-Sim PTX: Warning %f101 was declared previous at ispass-2009-NN.1.sm_30.ptx:24 skipping new declaration
GPGPU-Sim PTX: Warning %f102 was declared previous at ispass-2009-NN.1.sm_30.ptx:24 skipping new declaration
GPGPU-Sim PTX: Warning %f103 was declared previous at ispass-2009-NN.1.sm_30.ptx:24 skipping new declaration
GPGPU-Sim PTX: Warning %f104 was declared previous at ispass-2009-NN.1.sm_30.ptx:24 skipping new declaration
GPGPU-Sim PTX: Warning %f105 was declared previous at ispass-2009-NN.1.sm_30.ptx:24 skipping new declaration
GPGPU-Sim PTX: Warning %f106 was declared previous at ispass-2009-NN.1.sm_30.ptx:24 skipping new declaration
GPGPU-Sim PTX: Warning %f107 was declared previous at ispass-2009-NN.1.sm_30.ptx:24 skipping new declaration
GPGPU-Sim PTX: Warning %f108 was declared previous at ispass-2009-NN.1.sm_30.ptx:24 skipping new declaration
GPGPU-Sim PTX: Warning %f109 was declared previous at ispass-2009-NN.1.sm_30.ptx:24 skipping new declaration
GPGPU-Sim PTX: Warning %f110 was declared previous at ispass-2009-NN.1.sm_30.ptx:24 skipping new declaration
GPGPU-Sim PTX: Warning %r0 was declared previous at ispass-2009-NN.1.sm_30.ptx:25 skipping new declaration
GPGPU-Sim PTX: Warning %r1 was declared previous at ispass-2009-NN.1.sm_30.ptx:25 skipping new declaration
GPGPU-Sim PTX: Warning %r2 was declared previous at ispass-2009-NN.1.sm_30.ptx:25 skipping new declaration
GPGPU-Sim PTX: Warning %r3 was declared previous at ispass-2009-NN.1.sm_30.ptx:25 skipping new declaration
GPGPU-Sim PTX: Warning %r4 was declared previous at ispass-2009-NN.1.sm_30.ptx:25 skipping new declaration
GPGPU-Sim PTX: Warning %r5 was declared previous at ispass-2009-NN.1.sm_30.ptx:25 skipping new declaration
GPGPU-Sim PTX: Warning %r6 was declared previous at ispass-2009-NN.1.sm_30.ptx:25 skipping new declaration
GPGPU-Sim PTX: Warning %r7 was declared previous at ispass-2009-NN.1.sm_30.ptx:25 skipping new declaration
GPGPU-Sim PTX: Warning %r8 was declared previous at ispass-2009-NN.1.sm_30.ptx:25 skipping new declaration
GPGPU-Sim PTX: Warning %r9 was declared previous at ispass-2009-NN.1.sm_30.ptx:25 skipping new declaration
GPGPU-Sim PTX: Warning %r10 was declared previous at ispass-2009-NN.1.sm_30.ptx:25 skipping new declaration
GPGPU-Sim PTX: Warning %r11 was declared previous at ispass-2009-NN.1.sm_30.ptx:25 skipping new declaration
GPGPU-Sim PTX: Warning %r12 was declared previous at ispass-2009-NN.1.sm_30.ptx:25 skipping new declaration
GPGPU-Sim PTX: Warning %r13 was declared previous at ispass-2009-NN.1.sm_30.ptx:25 skipping new declaration
GPGPU-Sim PTX: Warning %r14 was declared previous at ispass-2009-NN.1.sm_30.ptx:25 skipping new declaration
GPGPU-Sim PTX: Warning %r15 was declared previous at ispass-2009-NN.1.sm_30.ptx:25 skipping new declaration
GPGPU-Sim PTX: Warning %r16 was declared previous at ispass-2009-NN.1.sm_30.ptx:25 skipping new declaration
GPGPU-Sim PTX: Warning %r17 was declared previous at ispass-2009-NN.1.sm_30.ptx:25 skipping new declaration
GPGPU-Sim PTX: Warning %r18 was declared previous at ispass-2009-NN.1.sm_30.ptx:25 skipping new declaration
GPGPU-Sim PTX: Warning %r19 was declared previous at ispass-2009-NN.1.sm_30.ptx:25 skipping new declaration
GPGPU-Sim PTX: Warning %r20 was declared previous at ispass-2009-NN.1.sm_30.ptx:25 skipping new declaration
GPGPU-Sim PTX: Warning %r21 was declared previous at ispass-2009-NN.1.sm_30.ptx:25 skipping new declaration
GPGPU-Sim PTX: Warning %r22 was declared previous at ispass-2009-NN.1.sm_30.ptx:25 skipping new declaration
GPGPU-Sim PTX: Warning %r23 was declared previous at ispass-2009-NN.1.sm_30.ptx:25 skipping new declaration
GPGPU-Sim PTX: Warning %r24 was declared previous at ispass-2009-NN.1.sm_30.ptx:25 skipping new declaration
GPGPU-Sim PTX: Warning %r25 was declared previous at ispass-2009-NN.1.sm_30.ptx:25 skipping new declaration
GPGPU-Sim PTX: Warning %r26 was declared previous at ispass-2009-NN.1.sm_30.ptx:25 skipping new declaration
GPGPU-Sim PTX: Warning %r27 was declared previous at ispass-2009-NN.1.sm_30.ptx:25 skipping new declaration
GPGPU-Sim PTX: Warning %r28 was declared previous at ispass-2009-NN.1.sm_30.ptx:25 skipping new declaration
GPGPU-Sim PTX: Warning %r29 was declared previous at ispass-2009-NN.1.sm_30.ptx:25 skipping new declaration
GPGPU-Sim PTX: Warning %r30 was declared previous at ispass-2009-NN.1.sm_30.ptx:25 skipping new declaration
GPGPU-Sim PTX: Warning %r31 was declared previous at ispass-2009-NN.1.sm_30.ptx:25 skipping new declaration
GPGPU-Sim PTX: Warning %r32 was declared previous at ispass-2009-NN.1.sm_30.ptx:25 skipping new declaration
GPGPU-Sim PTX: Warning %r33 was declared previous at ispass-2009-NN.1.sm_30.ptx:25 skipping new declaration
GPGPU-Sim PTX: Warning %r34 was declared previous at ispass-2009-NN.1.sm_30.ptx:25 skipping new declaration
GPGPU-Sim PTX: Warning %r35 was declared previous at ispass-2009-NN.1.sm_30.ptx:25 skipping new declaration
GPGPU-Sim PTX: Warning %r36 was declared previous at ispass-2009-NN.1.sm_30.ptx:25 skipping new declaration
GPGPU-Sim PTX: Warning %r37 was declared previous at ispass-2009-NN.1.sm_30.ptx:25 skipping new declaration
GPGPU-Sim PTX: Warning %r38 was declared previous at ispass-2009-NN.1.sm_30.ptx:25 skipping new declaration
GPGPU-Sim PTX: Warning %r39 was declared previous at ispass-2009-NN.1.sm_30.ptx:25 skipping new declaration
GPGPU-Sim PTX: Warning %r40 was declared previous at ispass-2009-NN.1.sm_30.ptx:25 skipping new declaration
GPGPU-Sim PTX: Warning %r41 was declared previous at ispass-2009-NN.1.sm_30.ptx:25 skipping new declaration
GPGPU-Sim PTX: Warning %r42 was declared previous at ispass-2009-NN.1.sm_30.ptx:25 skipping new declaration
GPGPU-Sim PTX: Warning %r43 was declared previous at ispass-2009-NN.1.sm_30.ptx:25 skipping new declaration
GPGPU-Sim PTX: Warning %r44 was declared previous at ispass-2009-NN.1.sm_30.ptx:25 skipping new declaration
GPGPU-Sim PTX: Warning %r45 was declared previous at ispass-2009-NN.1.sm_30.ptx:25 skipping new declaration
GPGPU-Sim PTX: Warning %r46 was declared previous at ispass-2009-NN.1.sm_30.ptx:25 skipping new declaration
GPGPU-Sim PTX: Warning %r47 was declared previous at ispass-2009-NN.1.sm_30.ptx:25 skipping new declaration
GPGPU-Sim PTX: Warning %r48 was declared previous at ispass-2009-NN.1.sm_30.ptx:25 skipping new declaration
GPGPU-Sim PTX: Warning %r49 was declared previous at ispass-2009-NN.1.sm_30.ptx:25 skipping new declaration
GPGPU-Sim PTX: Warning %r50 was declared previous at ispass-2009-NN.1.sm_30.ptx:25 skipping new declaration
GPGPU-Sim PTX: Warning %r51 was declared previous at ispass-2009-NN.1.sm_30.ptx:25 skipping new declaration
GPGPU-Sim PTX: Warning %r52 was declared previous at ispass-2009-NN.1.sm_30.ptx:25 skipping new declaration
GPGPU-Sim PTX: Warning %r53 was declared previous at ispass-2009-NN.1.sm_30.ptx:25 skipping new declaration
GPGPU-Sim PTX: Warning %r54 was declared previous at ispass-2009-NN.1.sm_30.ptx:25 skipping new declaration
GPGPU-Sim PTX: Warning %r55 was declared previous at ispass-2009-NN.1.sm_30.ptx:25 skipping new declaration
GPGPU-Sim PTX: Warning %r56 was declared previous at ispass-2009-NN.1.sm_30.ptx:25 skipping new declaration
GPGPU-Sim PTX: Warning %r57 was declared previous at ispass-2009-NN.1.sm_30.ptx:25 skipping new declaration
GPGPU-Sim PTX: Warning %r58 was declared previous at ispass-2009-NN.1.sm_30.ptx:25 skipping new declaration
GPGPU-Sim PTX: Warning %r59 was declared previous at ispass-2009-NN.1.sm_30.ptx:25 skipping new declaration
GPGPU-Sim PTX: Warning %r60 was declared previous at ispass-2009-NN.1.sm_30.ptx:25 skipping new declaration
GPGPU-Sim PTX: Warning %r61 was declared previous at ispass-2009-NN.1.sm_30.ptx:25 skipping new declaration
GPGPU-Sim PTX: Warning %r62 was declared previous at ispass-2009-NN.1.sm_30.ptx:25 skipping new declaration
GPGPU-Sim PTX: Warning %r63 was declared previous at ispass-2009-NN.1.sm_30.ptx:25 skipping new declaration
GPGPU-Sim PTX: Warning %r64 was declared previous at ispass-2009-NN.1.sm_30.ptx:25 skipping new declaration
GPGPU-Sim PTX: Warning %r65 was declared previous at ispass-2009-NN.1.sm_30.ptx:25 skipping new declaration
GPGPU-Sim PTX: Warning %r66 was declared previous at ispass-2009-NN.1.sm_30.ptx:25 skipping new declaration
GPGPU-Sim PTX: Warning %fd0 was declared previous at ispass-2009-NN.1.sm_30.ptx:26 skipping new declaration
GPGPU-Sim PTX: Warning %fd1 was declared previous at ispass-2009-NN.1.sm_30.ptx:26 skipping new declaration
GPGPU-Sim PTX: Warning %fd2 was declared previous at ispass-2009-NN.1.sm_30.ptx:26 skipping new declaration
GPGPU-Sim PTX: Warning %fd3 was declared previous at ispass-2009-NN.1.sm_30.ptx:26 skipping new declaration
GPGPU-Sim PTX: Warning %fd4 was declared previous at ispass-2009-NN.1.sm_30.ptx:26 skipping new declaration
GPGPU-Sim PTX: Warning %rd0 was declared previous at ispass-2009-NN.1.sm_30.ptx:27 skipping new declaration
GPGPU-Sim PTX: Warning %rd1 was declared previous at ispass-2009-NN.1.sm_30.ptx:27 skipping new declaration
GPGPU-Sim PTX: Warning %rd2 was declared previous at ispass-2009-NN.1.sm_30.ptx:27 skipping new declaration
GPGPU-Sim PTX: Warning %rd3 was declared previous at ispass-2009-NN.1.sm_30.ptx:27 skipping new declaration
GPGPU-Sim PTX: Warning %rd4 was declared previous at ispass-2009-NN.1.sm_30.ptx:27 skipping new declaration
GPGPU-Sim PTX: Warning %rd5 was declared previous at ispass-2009-NN.1.sm_30.ptx:27 skipping new declaration
GPGPU-Sim PTX: Warning %rd6 was declared previous at ispass-2009-NN.1.sm_30.ptx:27 skipping new declaration
GPGPU-Sim PTX: Warning %rd7 was declared previous at ispass-2009-NN.1.sm_30.ptx:27 skipping new declaration
GPGPU-Sim PTX: Warning %rd8 was declared previous at ispass-2009-NN.1.sm_30.ptx:27 skipping new declaration
GPGPU-Sim PTX: Warning %rd9 was declared previous at ispass-2009-NN.1.sm_30.ptx:27 skipping new declaration
GPGPU-Sim PTX: Warning %rd10 was declared previous at ispass-2009-NN.1.sm_30.ptx:27 skipping new declaration
GPGPU-Sim PTX: Warning %rd11 was declared previous at ispass-2009-NN.1.sm_30.ptx:27 skipping new declaration
GPGPU-Sim PTX: Warning %rd12 was declared previous at ispass-2009-NN.1.sm_30.ptx:27 skipping new declaration
GPGPU-Sim PTX: Warning %rd13 was declared previous at ispass-2009-NN.1.sm_30.ptx:27 skipping new declaration
GPGPU-Sim PTX: Warning %rd14 was declared previous at ispass-2009-NN.1.sm_30.ptx:27 skipping new declaration
GPGPU-Sim PTX: Warning %rd15 was declared previous at ispass-2009-NN.1.sm_30.ptx:27 skipping new declaration
GPGPU-Sim PTX: Warning %rd16 was declared previous at ispass-2009-NN.1.sm_30.ptx:27 skipping new declaration
GPGPU-Sim PTX: Warning %rd17 was declared previous at ispass-2009-NN.1.sm_30.ptx:27 skipping new declaration
GPGPU-Sim PTX: Warning %rd18 was declared previous at ispass-2009-NN.1.sm_30.ptx:27 skipping new declaration
GPGPU-Sim PTX: Warning %rd19 was declared previous at ispass-2009-NN.1.sm_30.ptx:27 skipping new declaration
GPGPU-Sim PTX: Warning %rd20 was declared previous at ispass-2009-NN.1.sm_30.ptx:27 skipping new declaration
GPGPU-Sim PTX: Warning %rd21 was declared previous at ispass-2009-NN.1.sm_30.ptx:27 skipping new declaration
GPGPU-Sim PTX: Warning %rd22 was declared previous at ispass-2009-NN.1.sm_30.ptx:27 skipping new declaration
GPGPU-Sim PTX: Warning %rd23 was declared previous at ispass-2009-NN.1.sm_30.ptx:27 skipping new declaration
GPGPU-Sim PTX: Warning %rd24 was declared previous at ispass-2009-NN.1.sm_30.ptx:27 skipping new declaration
GPGPU-Sim PTX: Warning %rd25 was declared previous at ispass-2009-NN.1.sm_30.ptx:27 skipping new declaration
GPGPU-Sim PTX: Warning %rd26 was declared previous at ispass-2009-NN.1.sm_30.ptx:27 skipping new declaration
GPGPU-Sim PTX: Warning %rd27 was declared previous at ispass-2009-NN.1.sm_30.ptx:27 skipping new declaration
GPGPU-Sim PTX: Warning %rd28 was declared previous at ispass-2009-NN.1.sm_30.ptx:27 skipping new declaration
GPGPU-Sim PTX: Warning %rd29 was declared previous at ispass-2009-NN.1.sm_30.ptx:27 skipping new declaration
GPGPU-Sim PTX: Warning %rd30 was declared previous at ispass-2009-NN.1.sm_30.ptx:27 skipping new declaration
GPGPU-Sim PTX: Warning %rd31 was declared previous at ispass-2009-NN.1.sm_30.ptx:27 skipping new declaration
GPGPU-Sim PTX: Warning %rd32 was declared previous at ispass-2009-NN.1.sm_30.ptx:27 skipping new declaration
GPGPU-Sim PTX: Warning %rd33 was declared previous at ispass-2009-NN.1.sm_30.ptx:27 skipping new declaration
GPGPU-Sim PTX: Warning %rd34 was declared previous at ispass-2009-NN.1.sm_30.ptx:27 skipping new declaration
GPGPU-Sim PTX: Warning %rd35 was declared previous at ispass-2009-NN.1.sm_30.ptx:27 skipping new declaration
GPGPU-Sim PTX: Warning %rd36 was declared previous at ispass-2009-NN.1.sm_30.ptx:27 skipping new declaration
GPGPU-Sim PTX: Warning %rd37 was declared previous at ispass-2009-NN.1.sm_30.ptx:27 skipping new declaration
GPGPU-Sim PTX: Warning %rd38 was declared previous at ispass-2009-NN.1.sm_30.ptx:27 skipping new declaration
GPGPU-Sim PTX: Warning %rd39 was declared previous at ispass-2009-NN.1.sm_30.ptx:27 skipping new declaration
GPGPU-Sim PTX: Warning %rd40 was declared previous at ispass-2009-NN.1.sm_30.ptx:27 skipping new declaration
GPGPU-Sim PTX: Warning %rd41 was declared previous at ispass-2009-NN.1.sm_30.ptx:27 skipping new declaration
GPGPU-Sim PTX: Warning %rd42 was declared previous at ispass-2009-NN.1.sm_30.ptx:27 skipping new declaration
GPGPU-Sim PTX: Warning %rd43 was declared previous at ispass-2009-NN.1.sm_30.ptx:27 skipping new declaration
GPGPU-Sim PTX: Warning %rd44 was declared previous at ispass-2009-NN.1.sm_30.ptx:27 skipping new declaration
GPGPU-Sim PTX: Warning %rd45 was declared previous at ispass-2009-NN.1.sm_30.ptx:27 skipping new declaration
GPGPU-Sim PTX: Warning %rd46 was declared previous at ispass-2009-NN.1.sm_30.ptx:27 skipping new declaration
GPGPU-Sim PTX: Warning %rd47 was declared previous at ispass-2009-NN.1.sm_30.ptx:27 skipping new declaration
GPGPU-Sim PTX: Warning %rd48 was declared previous at ispass-2009-NN.1.sm_30.ptx:27 skipping new declaration
GPGPU-Sim PTX: Warning %rd49 was declared previous at ispass-2009-NN.1.sm_30.ptx:27 skipping new declaration
GPGPU-Sim PTX: Warning %rd50 was declared previous at ispass-2009-NN.1.sm_30.ptx:27 skipping new declaration
GPGPU-Sim PTX: Warning %rd51 was declared previous at ispass-2009-NN.1.sm_30.ptx:27 skipping new declaration
GPGPU-Sim PTX: Warning %rd52 was declared previous at ispass-2009-NN.1.sm_30.ptx:27 skipping new declaration
GPGPU-Sim PTX: Warning %rd53 was declared previous at ispass-2009-NN.1.sm_30.ptx:27 skipping new declaration
GPGPU-Sim PTX: Warning %rd54 was declared previous at ispass-2009-NN.1.sm_30.ptx:27 skipping new declaration
GPGPU-Sim PTX: Warning %rd55 was declared previous at ispass-2009-NN.1.sm_30.ptx:27 skipping new declaration
GPGPU-Sim PTX: Warning %rd56 was declared previous at ispass-2009-NN.1.sm_30.ptx:27 skipping new declaration
GPGPU-Sim PTX: Warning %rd57 was declared previous at ispass-2009-NN.1.sm_30.ptx:27 skipping new declaration
GPGPU-Sim PTX: Warning %rd58 was declared previous at ispass-2009-NN.1.sm_30.ptx:27 skipping new declaration
GPGPU-Sim PTX: Warning %rd59 was declared previous at ispass-2009-NN.1.sm_30.ptx:27 skipping new declaration
GPGPU-Sim PTX: Warning %rd60 was declared previous at ispass-2009-NN.1.sm_30.ptx:27 skipping new declaration
GPGPU-Sim PTX: instruction assembly for function '_Z17executeFirstLayerPfS_S_'...   done.
GPGPU-Sim PTX: Warning %p0 was declared previous at ispass-2009-NN.1.sm_30.ptx:293 skipping new declaration
GPGPU-Sim PTX: Warning %p1 was declared previous at ispass-2009-NN.1.sm_30.ptx:293 skipping new declaration
GPGPU-Sim PTX: Warning %p2 was declared previous at ispass-2009-NN.1.sm_30.ptx:293 skipping new declaration
GPGPU-Sim PTX: Warning %p3 was declared previous at ispass-2009-NN.1.sm_30.ptx:293 skipping new declaration
GPGPU-Sim PTX: Warning %p4 was declared previous at ispass-2009-NN.1.sm_30.ptx:293 skipping new declaration
GPGPU-Sim PTX: Warning %f0 was declared previous at ispass-2009-NN.1.sm_30.ptx:294 skipping new declaration
GPGPU-Sim PTX: Warning %f1 was declared previous at ispass-2009-NN.1.sm_30.ptx:294 skipping new declaration
GPGPU-Sim PTX: Warning %f2 was declared previous at ispass-2009-NN.1.sm_30.ptx:294 skipping new declaration
GPGPU-Sim PTX: Warning %f3 was declared previous at ispass-2009-NN.1.sm_30.ptx:294 skipping new declaration
GPGPU-Sim PTX: Warning %f4 was declared previous at ispass-2009-NN.1.sm_30.ptx:294 skipping new declaration
GPGPU-Sim PTX: Warning %f5 was declared previous at ispass-2009-NN.1.sm_30.ptx:294 skipping new declaration
GPGPU-Sim PTX: Warning %f6 was declared previous at ispass-2009-NN.1.sm_30.ptx:294 skipping new declaration
GPGPU-Sim PTX: Warning %f7 was declared previous at ispass-2009-NN.1.sm_30.ptx:294 skipping new declaration
GPGPU-Sim PTX: Warning %f8 was declared previous at ispass-2009-NN.1.sm_30.ptx:294 skipping new declaration
GPGPU-Sim PTX: Warning %f9 was declared previous at ispass-2009-NN.1.sm_30.ptx:294 skipping new declaration
GPGPU-Sim PTX: Warning %f10 was declared previous at ispass-2009-NN.1.sm_30.ptx:294 skipping new declaration
GPGPU-Sim PTX: Warning %f11 was declared previous at ispass-2009-NN.1.sm_30.ptx:294 skipping new declaration
GPGPU-Sim PTX: Warning %f12 was declared previous at ispass-2009-NN.1.sm_30.ptx:294 skipping new declaration
GPGPU-Sim PTX: Warning %f13 was declared previous at ispass-2009-NN.1.sm_30.ptx:294 skipping new declaration
GPGPU-Sim PTX: Warning %f14 was declared previous at ispass-2009-NN.1.sm_30.ptx:294 skipping new declaration
GPGPU-Sim PTX: Warning %f15 was declared previous at ispass-2009-NN.1.sm_30.ptx:294 skipping new declaration
GPGPU-Sim PTX: Warning %f16 was declared previous at ispass-2009-NN.1.sm_30.ptx:294 skipping new declaration
GPGPU-Sim PTX: Warning %f17 was declared previous at ispass-2009-NN.1.sm_30.ptx:294 skipping new declaration
GPGPU-Sim PTX: Warning %f18 was declared previous at ispass-2009-NN.1.sm_30.ptx:294 skipping new declaration
GPGPU-Sim PTX: Warning %f19 was declared previous at ispass-2009-NN.1.sm_30.ptx:294 skipping new declaration
GPGPU-Sim PTX: Warning %f20 was declared previous at ispass-2009-NN.1.sm_30.ptx:294 skipping new declaration
GPGPU-Sim PTX: Warning %f21 was declared previous at ispass-2009-NN.1.sm_30.ptx:294 skipping new declaration
GPGPU-Sim PTX: Warning %f22 was declared previous at ispass-2009-NN.1.sm_30.ptx:294 skipping new declaration
GPGPU-Sim PTX: Warning %f23 was declared previous at ispass-2009-NN.1.sm_30.ptx:294 skipping new declaration
GPGPU-Sim PTX: Warning %f24 was declared previous at ispass-2009-NN.1.sm_30.ptx:294 skipping new declaration
GPGPU-Sim PTX: Warning %f25 was declared previous at ispass-2009-NN.1.sm_30.ptx:294 skipping new declaration
GPGPU-Sim PTX: Warning %f26 was declared previous at ispass-2009-NN.1.sm_30.ptx:294 skipping new declaration
GPGPU-Sim PTX: Warning %f27 was declared previous at ispass-2009-NN.1.sm_30.ptx:294 skipping new declaration
GPGPU-Sim PTX: Warning %f28 was declared previous at ispass-2009-NN.1.sm_30.ptx:294 skipping new declaration
GPGPU-Sim PTX: Warning %f29 was declared previous at ispass-2009-NN.1.sm_30.ptx:294 skipping new declaration
GPGPU-Sim PTX: Warning %f30 was declared previous at ispass-2009-NN.1.sm_30.ptx:294 skipping new declaration
GPGPU-Sim PTX: Warning %f31 was declared previous at ispass-2009-NN.1.sm_30.ptx:294 skipping new declaration
GPGPU-Sim PTX: Warning %f32 was declared previous at ispass-2009-NN.1.sm_30.ptx:294 skipping new declaration
GPGPU-Sim PTX: Warning %f33 was declared previous at ispass-2009-NN.1.sm_30.ptx:294 skipping new declaration
GPGPU-Sim PTX: Warning %f34 was declared previous at ispass-2009-NN.1.sm_30.ptx:294 skipping new declaration
GPGPU-Sim PTX: Warning %f35 was declared previous at ispass-2009-NN.1.sm_30.ptx:294 skipping new declaration
GPGPU-Sim PTX: Warning %f36 was declared previous at ispass-2009-NN.1.sm_30.ptx:294 skipping new declaration
GPGPU-Sim PTX: Warning %f37 was declared previous at ispass-2009-NN.1.sm_30.ptx:294 skipping new declaration
GPGPU-Sim PTX: Warning %f38 was declared previous at ispass-2009-NN.1.sm_30.ptx:294 skipping new declaration
GPGPU-Sim PTX: Warning %f39 was declared previous at ispass-2009-NN.1.sm_30.ptx:294 skipping new declaration
GPGPU-Sim PTX: Warning %f40 was declared previous at ispass-2009-NN.1.sm_30.ptx:294 skipping new declaration
GPGPU-Sim PTX: Warning %f41 was declared previous at ispass-2009-NN.1.sm_30.ptx:294 skipping new declaration
GPGPU-Sim PTX: Warning %f42 was declared previous at ispass-2009-NN.1.sm_30.ptx:294 skipping new declaration
GPGPU-Sim PTX: Warning %f43 was declared previous at ispass-2009-NN.1.sm_30.ptx:294 skipping new declaration
GPGPU-Sim PTX: Warning %f44 was declared previous at ispass-2009-NN.1.sm_30.ptx:294 skipping new declaration
GPGPU-Sim PTX: Warning %f45 was declared previous at ispass-2009-NN.1.sm_30.ptx:294 skipping new declaration
GPGPU-Sim PTX: Warning %f46 was declared previous at ispass-2009-NN.1.sm_30.ptx:294 skipping new declaration
GPGPU-Sim PTX: Warning %f47 was declared previous at ispass-2009-NN.1.sm_30.ptx:294 skipping new declaration
GPGPU-Sim PTX: Warning %f48 was declared previous at ispass-2009-NN.1.sm_30.ptx:294 skipping new declaration
GPGPU-Sim PTX: Warning %f49 was declared previous at ispass-2009-NN.1.sm_30.ptx:294 skipping new declaration
GPGPU-Sim PTX: Warning %f50 was declared previous at ispass-2009-NN.1.sm_30.ptx:294 skipping new declaration
GPGPU-Sim PTX: Warning %f51 was declared previous at ispass-2009-NN.1.sm_30.ptx:294 skipping new declaration
GPGPU-Sim PTX: Warning %f52 was declared previous at ispass-2009-NN.1.sm_30.ptx:294 skipping new declaration
GPGPU-Sim PTX: Warning %f53 was declared previous at ispass-2009-NN.1.sm_30.ptx:294 skipping new declaration
GPGPU-Sim PTX: Warning %f54 was declared previous at ispass-2009-NN.1.sm_30.ptx:294 skipping new declaration
GPGPU-Sim PTX: Warning %f55 was declared previous at ispass-2009-NN.1.sm_30.ptx:294 skipping new declaration
GPGPU-Sim PTX: Warning %r0 was declared previous at ispass-2009-NN.1.sm_30.ptx:295 skipping new declaration
GPGPU-Sim PTX: Warning %r1 was declared previous at ispass-2009-NN.1.sm_30.ptx:295 skipping new declaration
GPGPU-Sim PTX: Warning %r2 was declared previous at ispass-2009-NN.1.sm_30.ptx:295 skipping new declaration
GPGPU-Sim PTX: Warning %r3 was declared previous at ispass-2009-NN.1.sm_30.ptx:295 skipping new declaration
GPGPU-Sim PTX: Warning %r4 was declared previous at ispass-2009-NN.1.sm_30.ptx:295 skipping new declaration
GPGPU-Sim PTX: Warning %r5 was declared previous at ispass-2009-NN.1.sm_30.ptx:295 skipping new declaration
GPGPU-Sim PTX: Warning %r6 was declared previous at ispass-2009-NN.1.sm_30.ptx:295 skipping new declaration
GPGPU-Sim PTX: Warning %r7 was declared previous at ispass-2009-NN.1.sm_30.ptx:295 skipping new declaration
GPGPU-Sim PTX: Warning %r8 was declared previous at ispass-2009-NN.1.sm_30.ptx:295 skipping new declaration
GPGPU-Sim PTX: Warning %r9 was declared previous at ispass-2009-NN.1.sm_30.ptx:295 skipping new declaration
GPGPU-Sim PTX: Warning %r10 was declared previous at ispass-2009-NN.1.sm_30.ptx:295 skipping new declaration
GPGPU-Sim PTX: Warning %r11 was declared previous at ispass-2009-NN.1.sm_30.ptx:295 skipping new declaration
GPGPU-Sim PTX: Warning %r12 was declared previous at ispass-2009-NN.1.sm_30.ptx:295 skipping new declaration
GPGPU-Sim PTX: Warning %r13 was declared previous at ispass-2009-NN.1.sm_30.ptx:295 skipping new declaration
GPGPU-Sim PTX: Warning %r14 was declared previous at ispass-2009-NN.1.sm_30.ptx:295 skipping new declaration
GPGPU-Sim PTX: Warning %r15 was declared previous at ispass-2009-NN.1.sm_30.ptx:295 skipping new declaration
GPGPU-Sim PTX: Warning %r16 was declared previous at ispass-2009-NN.1.sm_30.ptx:295 skipping new declaration
GPGPU-Sim PTX: Warning %r17 was declared previous at ispass-2009-NN.1.sm_30.ptx:295 skipping new declaration
GPGPU-Sim PTX: Warning %r18 was declared previous at ispass-2009-NN.1.sm_30.ptx:295 skipping new declaration
GPGPU-Sim PTX: Warning %r19 was declared previous at ispass-2009-NN.1.sm_30.ptx:295 skipping new declaration
GPGPU-Sim PTX: Warning %r20 was declared previous at ispass-2009-NN.1.sm_30.ptx:295 skipping new declaration
GPGPU-Sim PTX: Warning %r21 was declared previous at ispass-2009-NN.1.sm_30.ptx:295 skipping new declaration
GPGPU-Sim PTX: Warning %r22 was declared previous at ispass-2009-NN.1.sm_30.ptx:295 skipping new declaration
GPGPU-Sim PTX: Warning %r23 was declared previous at ispass-2009-NN.1.sm_30.ptx:295 skipping new declaration
GPGPU-Sim PTX: Warning %r24 was declared previous at ispass-2009-NN.1.sm_30.ptx:295 skipping new declaration
GPGPU-Sim PTX: Warning %r25 was declared previous at ispass-2009-NN.1.sm_30.ptx:295 skipping new declaration
GPGPU-Sim PTX: Warning %r26 was declared previous at ispass-2009-NN.1.sm_30.ptx:295 skipping new declaration
GPGPU-Sim PTX: Warning %r27 was declared previous at ispass-2009-NN.1.sm_30.ptx:295 skipping new declaration
GPGPU-Sim PTX: Warning %r28 was declared previous at ispass-2009-NN.1.sm_30.ptx:295 skipping new declaration
GPGPU-Sim PTX: Warning %r29 was declared previous at ispass-2009-NN.1.sm_30.ptx:295 skipping new declaration
GPGPU-Sim PTX: Warning %r30 was declared previous at ispass-2009-NN.1.sm_30.ptx:295 skipping new declaration
GPGPU-Sim PTX: Warning %fd0 was declared previous at ispass-2009-NN.1.sm_30.ptx:296 skipping new declaration
GPGPU-Sim PTX: Warning %fd1 was declared previous at ispass-2009-NN.1.sm_30.ptx:296 skipping new declaration
GPGPU-Sim PTX: Warning %fd2 was declared previous at ispass-2009-NN.1.sm_30.ptx:296 skipping new declaration
GPGPU-Sim PTX: Warning %fd3 was declared previous at ispass-2009-NN.1.sm_30.ptx:296 skipping new declaration
GPGPU-Sim PTX: Warning %fd4 was declared previous at ispass-2009-NN.1.sm_30.ptx:296 skipping new declaration
GPGPU-Sim PTX: Warning %rd0 was declared previous at ispass-2009-NN.1.sm_30.ptx:297 skipping new declaration
GPGPU-Sim PTX: Warning %rd1 was declared previous at ispass-2009-NN.1.sm_30.ptx:297 skipping new declaration
GPGPU-Sim PTX: Warning %rd2 was declared previous at ispass-2009-NN.1.sm_30.ptx:297 skipping new declaration
GPGPU-Sim PTX: Warning %rd3 was declared previous at ispass-2009-NN.1.sm_30.ptx:297 skipping new declaration
GPGPU-Sim PTX: Warning %rd4 was declared previous at ispass-2009-NN.1.sm_30.ptx:297 skipping new declaration
GPGPU-Sim PTX: Warning %rd5 was declared previous at ispass-2009-NN.1.sm_30.ptx:297 skipping new declaration
GPGPU-Sim PTX: Warning %rd6 was declared previous at ispass-2009-NN.1.sm_30.ptx:297 skipping new declaration
GPGPU-Sim PTX: Warning %rd7 was declared previous at ispass-2009-NN.1.sm_30.ptx:297 skipping new declaration
GPGPU-Sim PTX: Warning %rd8 was declared previous at ispass-2009-NN.1.sm_30.ptx:297 skipping new declaration
GPGPU-Sim PTX: Warning %rd9 was declared previous at ispass-2009-NN.1.sm_30.ptx:297 skipping new declaration
GPGPU-Sim PTX: Warning %rd10 was declared previous at ispass-2009-NN.1.sm_30.ptx:297 skipping new declaration
GPGPU-Sim PTX: Warning %rd11 was declared previous at ispass-2009-NN.1.sm_30.ptx:297 skipping new declaration
GPGPU-Sim PTX: Warning %rd12 was declared previous at ispass-2009-NN.1.sm_30.ptx:297 skipping new declaration
GPGPU-Sim PTX: Warning %rd13 was declared previous at ispass-2009-NN.1.sm_30.ptx:297 skipping new declaration
GPGPU-Sim PTX: Warning %rd14 was declared previous at ispass-2009-NN.1.sm_30.ptx:297 skipping new declaration
GPGPU-Sim PTX: Warning %rd15 was declared previous at ispass-2009-NN.1.sm_30.ptx:297 skipping new declaration
GPGPU-Sim PTX: Warning %rd16 was declared previous at ispass-2009-NN.1.sm_30.ptx:297 skipping new declaration
GPGPU-Sim PTX: Warning %rd17 was declared previous at ispass-2009-NN.1.sm_30.ptx:297 skipping new declaration
GPGPU-Sim PTX: Warning %rd18 was declared previous at ispass-2009-NN.1.sm_30.ptx:297 skipping new declaration
GPGPU-Sim PTX: Warning %rd19 was declared previous at ispass-2009-NN.1.sm_30.ptx:297 skipping new declaration
GPGPU-Sim PTX: Warning %rd20 was declared previous at ispass-2009-NN.1.sm_30.ptx:297 skipping new declaration
GPGPU-Sim PTX: Warning %rd21 was declared previous at ispass-2009-NN.1.sm_30.ptx:297 skipping new declaration
GPGPU-Sim PTX: Warning %rd22 was declared previous at ispass-2009-NN.1.sm_30.ptx:297 skipping new declaration
GPGPU-Sim PTX: Warning %rd23 was declared previous at ispass-2009-NN.1.sm_30.ptx:297 skipping new declaration
GPGPU-Sim PTX: Warning %rd24 was declared previous at ispass-2009-NN.1.sm_30.ptx:297 skipping new declaration
GPGPU-Sim PTX: Warning %rd25 was declared previous at ispass-2009-NN.1.sm_30.ptx:297 skipping new declaration
GPGPU-Sim PTX: Warning %rd26 was declared previous at ispass-2009-NN.1.sm_30.ptx:297 skipping new declaration
GPGPU-Sim PTX: Warning %rd27 was declared previous at ispass-2009-NN.1.sm_30.ptx:297 skipping new declaration
GPGPU-Sim PTX: Warning %rd28 was declared previous at ispass-2009-NN.1.sm_30.ptx:297 skipping new declaration
GPGPU-Sim PTX: instruction assembly for function '_Z18executeSecondLayerPfS_S_'...   done.
GPGPU-Sim PTX: Warning %p0 was declared previous at ispass-2009-NN.1.sm_30.ptx:437 skipping new declaration
GPGPU-Sim PTX: Warning %p1 was declared previous at ispass-2009-NN.1.sm_30.ptx:437 skipping new declaration
GPGPU-Sim PTX: Warning %p2 was declared previous at ispass-2009-NN.1.sm_30.ptx:437 skipping new declaration
GPGPU-Sim PTX: Warning %p3 was declared previous at ispass-2009-NN.1.sm_30.ptx:437 skipping new declaration
GPGPU-Sim PTX: Warning %p4 was declared previous at ispass-2009-NN.1.sm_30.ptx:437 skipping new declaration
GPGPU-Sim PTX: Warning %f0 was declared previous at ispass-2009-NN.1.sm_30.ptx:438 skipping new declaration
GPGPU-Sim PTX: Warning %f1 was declared previous at ispass-2009-NN.1.sm_30.ptx:438 skipping new declaration
GPGPU-Sim PTX: Warning %f2 was declared previous at ispass-2009-NN.1.sm_30.ptx:438 skipping new declaration
GPGPU-Sim PTX: Warning %f3 was declared previous at ispass-2009-NN.1.sm_30.ptx:438 skipping new declaration
GPGPU-Sim PTX: Warning %f4 was declared previous at ispass-2009-NN.1.sm_30.ptx:438 skipping new declaration
GPGPU-Sim PTX: Warning %f5 was declared previous at ispass-2009-NN.1.sm_30.ptx:438 skipping new declaration
GPGPU-Sim PTX: Warning %f6 was declared previous at ispass-2009-NN.1.sm_30.ptx:438 skipping new declaration
GPGPU-Sim PTX: Warning %f7 was declared previous at ispass-2009-NN.1.sm_30.ptx:438 skipping new declaration
GPGPU-Sim PTX: Warning %f8 was declared previous at ispass-2009-NN.1.sm_30.ptx:438 skipping new declaration
GPGPU-Sim PTX: Warning %f9 was declared previous at ispass-2009-NN.1.sm_30.ptx:438 skipping new declaration
GPGPU-Sim PTX: Warning %f10 was declared previous at ispass-2009-NN.1.sm_30.ptx:438 skipping new declaration
GPGPU-Sim PTX: Warning %f11 was declared previous at ispass-2009-NN.1.sm_30.ptx:438 skipping new declaration
GPGPU-Sim PTX: Warning %f12 was declared previous at ispass-2009-NN.1.sm_30.ptx:438 skipping new declaration
GPGPU-Sim PTX: Warning %f13 was declared previous at ispass-2009-NN.1.sm_30.ptx:438 skipping new declaration
GPGPU-Sim PTX: Warning %f14 was declared previous at ispass-2009-NN.1.sm_30.ptx:438 skipping new declaration
GPGPU-Sim PTX: Warning %f15 was declared previous at ispass-2009-NN.1.sm_30.ptx:438 skipping new declaration
GPGPU-Sim PTX: Warning %f16 was declared previous at ispass-2009-NN.1.sm_30.ptx:438 skipping new declaration
GPGPU-Sim PTX: Warning %f17 was declared previous at ispass-2009-NN.1.sm_30.ptx:438 skipping new declaration
GPGPU-Sim PTX: Warning %f18 was declared previous at ispass-2009-NN.1.sm_30.ptx:438 skipping new declaration
GPGPU-Sim PTX: Warning %f19 was declared previous at ispass-2009-NN.1.sm_30.ptx:438 skipping new declaration
GPGPU-Sim PTX: Warning %f20 was declared previous at ispass-2009-NN.1.sm_30.ptx:438 skipping new declaration
GPGPU-Sim PTX: Warning %f21 was declared previous at ispass-2009-NN.1.sm_30.ptx:438 skipping new declaration
GPGPU-Sim PTX: Warning %f22 was declared previous at ispass-2009-NN.1.sm_30.ptx:438 skipping new declaration
GPGPU-Sim PTX: Warning %f23 was declared previous at ispass-2009-NN.1.sm_30.ptx:438 skipping new declaration
GPGPU-Sim PTX: Warning %f24 was declared previous at ispass-2009-NN.1.sm_30.ptx:438 skipping new declaration
GPGPU-Sim PTX: Warning %f25 was declared previous at ispass-2009-NN.1.sm_30.ptx:438 skipping new declaration
GPGPU-Sim PTX: Warning %f26 was declared previous at ispass-2009-NN.1.sm_30.ptx:438 skipping new declaration
GPGPU-Sim PTX: Warning %f27 was declared previous at ispass-2009-NN.1.sm_30.ptx:438 skipping new declaration
GPGPU-Sim PTX: Warning %f28 was declared previous at ispass-2009-NN.1.sm_30.ptx:438 skipping new declaration
GPGPU-Sim PTX: Warning %f29 was declared previous at ispass-2009-NN.1.sm_30.ptx:438 skipping new declaration
GPGPU-Sim PTX: Warning %f30 was declared previous at ispass-2009-NN.1.sm_30.ptx:438 skipping new declaration
GPGPU-Sim PTX: Warning %f31 was declared previous at ispass-2009-NN.1.sm_30.ptx:438 skipping new declaration
GPGPU-Sim PTX: Warning %f32 was declared previous at ispass-2009-NN.1.sm_30.ptx:438 skipping new declaration
GPGPU-Sim PTX: Warning %f33 was declared previous at ispass-2009-NN.1.sm_30.ptx:438 skipping new declaration
GPGPU-Sim PTX: Warning %f34 was declared previous at ispass-2009-NN.1.sm_30.ptx:438 skipping new declaration
GPGPU-Sim PTX: Warning %f35 was declared previous at ispass-2009-NN.1.sm_30.ptx:438 skipping new declaration
GPGPU-Sim PTX: Warning %f36 was declared previous at ispass-2009-NN.1.sm_30.ptx:438 skipping new declaration
GPGPU-Sim PTX: Warning %f37 was declared previous at ispass-2009-NN.1.sm_30.ptx:438 skipping new declaration
GPGPU-Sim PTX: Warning %f38 was declared previous at ispass-2009-NN.1.sm_30.ptx:438 skipping new declaration
GPGPU-Sim PTX: Warning %f39 was declared previous at ispass-2009-NN.1.sm_30.ptx:438 skipping new declaration
GPGPU-Sim PTX: Warning %f40 was declared previous at ispass-2009-NN.1.sm_30.ptx:438 skipping new declaration
GPGPU-Sim PTX: Warning %f41 was declared previous at ispass-2009-NN.1.sm_30.ptx:438 skipping new declaration
GPGPU-Sim PTX: Warning %f42 was declared previous at ispass-2009-NN.1.sm_30.ptx:438 skipping new declaration
GPGPU-Sim PTX: Warning %f43 was declared previous at ispass-2009-NN.1.sm_30.ptx:438 skipping new declaration
GPGPU-Sim PTX: Warning %f44 was declared previous at ispass-2009-NN.1.sm_30.ptx:438 skipping new declaration
GPGPU-Sim PTX: Warning %f45 was declared previous at ispass-2009-NN.1.sm_30.ptx:438 skipping new declaration
GPGPU-Sim PTX: Warning %f46 was declared previous at ispass-2009-NN.1.sm_30.ptx:438 skipping new declaration
GPGPU-Sim PTX: Warning %f47 was declared previous at ispass-2009-NN.1.sm_30.ptx:438 skipping new declaration
GPGPU-Sim PTX: Warning %f48 was declared previous at ispass-2009-NN.1.sm_30.ptx:438 skipping new declaration
GPGPU-Sim PTX: Warning %f49 was declared previous at ispass-2009-NN.1.sm_30.ptx:438 skipping new declaration
GPGPU-Sim PTX: Warning %f50 was declared previous at ispass-2009-NN.1.sm_30.ptx:438 skipping new declaration
GPGPU-Sim PTX: Warning %f51 was declared previous at ispass-2009-NN.1.sm_30.ptx:438 skipping new declaration
GPGPU-Sim PTX: Warning %f52 was declared previous at ispass-2009-NN.1.sm_30.ptx:438 skipping new declaration
GPGPU-Sim PTX: Warning %f53 was declared previous at ispass-2009-NN.1.sm_30.ptx:438 skipping new declaration
GPGPU-Sim PTX: Warning %f54 was declared previous at ispass-2009-NN.1.sm_30.ptx:438 skipping new declaration
GPGPU-Sim PTX: Warning %f55 was declared previous at ispass-2009-NN.1.sm_30.ptx:438 skipping new declaration
GPGPU-Sim PTX: Warning %f56 was declared previous at ispass-2009-NN.1.sm_30.ptx:438 skipping new declaration
GPGPU-Sim PTX: Warning %f57 was declared previous at ispass-2009-NN.1.sm_30.ptx:438 skipping new declaration
GPGPU-Sim PTX: Warning %f58 was declared previous at ispass-2009-NN.1.sm_30.ptx:438 skipping new declaration
GPGPU-Sim PTX: Warning %f59 was declared previous at ispass-2009-NN.1.sm_30.ptx:438 skipping new declaration
GPGPU-Sim PTX: Warning %f60 was declared previous at ispass-2009-NN.1.sm_30.ptx:438 skipping new declaration
GPGPU-Sim PTX: Warning %f61 was declared previous at ispass-2009-NN.1.sm_30.ptx:438 skipping new declaration
GPGPU-Sim PTX: Warning %f62 was declared previous at ispass-2009-NN.1.sm_30.ptx:438 skipping new declaration
GPGPU-Sim PTX: Warning %f63 was declared previous at ispass-2009-NN.1.sm_30.ptx:438 skipping new declaration
GPGPU-Sim PTX: Warning %f64 was declared previous at ispass-2009-NN.1.sm_30.ptx:438 skipping new declaration
GPGPU-Sim PTX: Warning %f65 was declared previous at ispass-2009-NN.1.sm_30.ptx:438 skipping new declaration
GPGPU-Sim PTX: Warning %f66 was declared previous at ispass-2009-NN.1.sm_30.ptx:438 skipping new declaration
GPGPU-Sim PTX: Warning %f67 was declared previous at ispass-2009-NN.1.sm_30.ptx:438 skipping new declaration
GPGPU-Sim PTX: Warning %r0 was declared previous at ispass-2009-NN.1.sm_30.ptx:439 skipping new declaration
GPGPU-Sim PTX: Warning %r1 was declared previous at ispass-2009-NN.1.sm_30.ptx:439 skipping new declaration
GPGPU-Sim PTX: Warning %r2 was declared previous at ispass-2009-NN.1.sm_30.ptx:439 skipping new declaration
GPGPU-Sim PTX: Warning %r3 was declared previous at ispass-2009-NN.1.sm_30.ptx:439 skipping new declaration
GPGPU-Sim PTX: Warning %r4 was declared previous at ispass-2009-NN.1.sm_30.ptx:439 skipping new declaration
GPGPU-Sim PTX: Warning %r5 was declared previous at ispass-2009-NN.1.sm_30.ptx:439 skipping new declaration
GPGPU-Sim PTX: Warning %r6 was declared previous at ispass-2009-NN.1.sm_30.ptx:439 skipping new declaration
GPGPU-Sim PTX: Warning %r7 was declared previous at ispass-2009-NN.1.sm_30.ptx:439 skipping new declaration
GPGPU-Sim PTX: Warning %r8 was declared previous at ispass-2009-NN.1.sm_30.ptx:439 skipping new declaration
GPGPU-Sim PTX: Warning %r9 was declared previous at ispass-2009-NN.1.sm_30.ptx:439 skipping new declaration
GPGPU-Sim PTX: Warning %r10 was declared previous at ispass-2009-NN.1.sm_30.ptx:439 skipping new declaration
GPGPU-Sim PTX: Warning %r11 was declared previous at ispass-2009-NN.1.sm_30.ptx:439 skipping new declaration
GPGPU-Sim PTX: Warning %r12 was declared previous at ispass-2009-NN.1.sm_30.ptx:439 skipping new declaration
GPGPU-Sim PTX: Warning %r13 was declared previous at ispass-2009-NN.1.sm_30.ptx:439 skipping new declaration
GPGPU-Sim PTX: Warning %r14 was declared previous at ispass-2009-NN.1.sm_30.ptx:439 skipping new declaration
GPGPU-Sim PTX: Warning %r15 was declared previous at ispass-2009-NN.1.sm_30.ptx:439 skipping new declaration
GPGPU-Sim PTX: Warning %r16 was declared previous at ispass-2009-NN.1.sm_30.ptx:439 skipping new declaration
GPGPU-Sim PTX: Warning %r17 was declared previous at ispass-2009-NN.1.sm_30.ptx:439 skipping new declaration
GPGPU-Sim PTX: Warning %r18 was declared previous at ispass-2009-NN.1.sm_30.ptx:439 skipping new declaration
GPGPU-Sim PTX: Warning %r19 was declared previous at ispass-2009-NN.1.sm_30.ptx:439 skipping new declaration
GPGPU-Sim PTX: Warning %r20 was declared previous at ispass-2009-NN.1.sm_30.ptx:439 skipping new declaration
GPGPU-Sim PTX: Warning %r21 was declared previous at ispass-2009-NN.1.sm_30.ptx:439 skipping new declaration
GPGPU-Sim PTX: Warning %r22 was declared previous at ispass-2009-NN.1.sm_30.ptx:439 skipping new declaration
GPGPU-Sim PTX: Warning %r23 was declared previous at ispass-2009-NN.1.sm_30.ptx:439 skipping new declaration
GPGPU-Sim PTX: Warning %r24 was declared previous at ispass-2009-NN.1.sm_30.ptx:439 skipping new declaration
GPGPU-Sim PTX: Warning %r25 was declared previous at ispass-2009-NN.1.sm_30.ptx:439 skipping new declaration
GPGPU-Sim PTX: Warning %r26 was declared previous at ispass-2009-NN.1.sm_30.ptx:439 skipping new declaration
GPGPU-Sim PTX: Warning %fd0 was declared previous at ispass-2009-NN.1.sm_30.ptx:440 skipping new declaration
GPGPU-Sim PTX: Warning %fd1 was declared previous at ispass-2009-NN.1.sm_30.ptx:440 skipping new declaration
GPGPU-Sim PTX: Warning %fd2 was declared previous at ispass-2009-NN.1.sm_30.ptx:440 skipping new declaration
GPGPU-Sim PTX: Warning %fd3 was declared previous at ispass-2009-NN.1.sm_30.ptx:440 skipping new declaration
GPGPU-Sim PTX: Warning %fd4 was declared previous at ispass-2009-NN.1.sm_30.ptx:440 skipping new declaration
GPGPU-Sim PTX: Warning %rd0 was declared previous at ispass-2009-NN.1.sm_30.ptx:441 skipping new declaration
GPGPU-Sim PTX: Warning %rd1 was declared previous at ispass-2009-NN.1.sm_30.ptx:441 skipping new declaration
GPGPU-Sim PTX: Warning %rd2 was declared previous at ispass-2009-NN.1.sm_30.ptx:441 skipping new declaration
GPGPU-Sim PTX: Warning %rd3 was declared previous at ispass-2009-NN.1.sm_30.ptx:441 skipping new declaration
GPGPU-Sim PTX: Warning %rd4 was declared previous at ispass-2009-NN.1.sm_30.ptx:441 skipping new declaration
GPGPU-Sim PTX: Warning %rd5 was declared previous at ispass-2009-NN.1.sm_30.ptx:441 skipping new declaration
GPGPU-Sim PTX: Warning %rd6 was declared previous at ispass-2009-NN.1.sm_30.ptx:441 skipping new declaration
GPGPU-Sim PTX: Warning %rd7 was declared previous at ispass-2009-NN.1.sm_30.ptx:441 skipping new declaration
GPGPU-Sim PTX: Warning %rd8 was declared previous at ispass-2009-NN.1.sm_30.ptx:441 skipping new declaration
GPGPU-Sim PTX: Warning %rd9 was declared previous at ispass-2009-NN.1.sm_30.ptx:441 skipping new declaration
GPGPU-Sim PTX: Warning %rd10 was declared previous at ispass-2009-NN.1.sm_30.ptx:441 skipping new declaration
GPGPU-Sim PTX: Warning %rd11 was declared previous at ispass-2009-NN.1.sm_30.ptx:441 skipping new declaration
GPGPU-Sim PTX: Warning %rd12 was declared previous at ispass-2009-NN.1.sm_30.ptx:441 skipping new declaration
GPGPU-Sim PTX: Warning %rd13 was declared previous at ispass-2009-NN.1.sm_30.ptx:441 skipping new declaration
GPGPU-Sim PTX: Warning %rd14 was declared previous at ispass-2009-NN.1.sm_30.ptx:441 skipping new declaration
[...]
WTRc_limit_alone = 0 
RTWc_limit_alone = 0 

Commands details: 
total_CMD = 197656 
n_nop = 197573 
Read = 75 
Write = 0 
L2_Alloc = 0 
L2_WB = 0 
n_act = 7 
n_pre = 1 
n_ref = 0 
n_req = 75 
total_req = 75 

Dual Bus Interface Util: 
issued_total_row = 8 
issued_total_col = 75 
Row_Bus_Util =  0.000040 
CoL_Bus_Util = 0.000379 
Either_Row_CoL_Bus_Util = 0.000420 
Issued_on_Two_Bus_Simul_Util = 0.000000 
issued_two_Eff = 0.000000 
queue_avg = 0.000015 


dram_util_bins: 0 0 0 0 0 0 0 0 0 0
dram_eff_bins: 0 0 0 0 0 0 0 0 0 0
mrqq: max=1 avg=1.51779e-05
Memory Partition 19: 
Cache L2_bank_038:
MSHR contents

Cache L2_bank_039:
MSHR contents

In Dram Latency Queue (total = 0): 
DRAM[19]: 16 bks, busW=16 BL=2 CL=12, tRRD=3 tCCD=1, tRCD=12 tRAS=28 tRP=12 tRC=40
n_cmd=197656 n_nop=197572 n_act=7 n_pre=1 n_ref_event=0 n_req=76 n_rd=76 n_rd_L2_A=0 n_write=0 n_wr_bk=0 bw_util=0.0003845
n_activity=1137 dram_eff=0.06684
bk0: 0a 197656i bk1: 0a 197656i bk2: 14a 197643i bk3: 25a 197619i bk4: 9a 197643i bk5: 13a 197644i bk6: 8a 197644i bk7: 7a 197644i bk8: 0a 197656i bk9: 0a 197656i bk10: 0a 197656i bk11: 0a 197656i bk12: 0a 197656i bk13: 0a 197656i bk14: 0a 197656i bk15: 0a 197656i 

------------------------------------------------------------------------

Row_Buffer_Locality = 0.907895
Row_Buffer_Locality_read = 0.907895
Row_Buffer_Locality_write = -nan
Bank_Level_Parallism = 1.000000
Bank_Level_Parallism_Col = 1.000000
Bank_Level_Parallism_Ready = 1.000000
write_to_read_ratio_blp_rw_average = 0.000000
GrpLevelPara = 1.000000 

BW Util details:
bwutil = 0.000385 
total_CMD = 197656 
util_bw = 76 
Wasted_Col = 87 
Wasted_Row = 12 
Idle = 197481 

BW Util Bottlenecks: 
RCDc_limit = 84 
RCDWRc_limit = 0 
WTRc_limit = 0 
RTWc_limit = 0 
CCDLc_limit = 3 
rwq = 0 
CCDLc_limit_alone = 3 
WTRc_limit_alone = 0 
RTWc_limit_alone = 0 

Commands details: 
total_CMD = 197656 
n_nop = 197572 
Read = 76 
Write = 0 
L2_Alloc = 0 
L2_WB = 0 
n_act = 7 
n_pre = 1 
n_ref = 0 
n_req = 76 
total_req = 76 

Dual Bus Interface Util: 
issued_total_row = 8 
issued_total_col = 76 
Row_Bus_Util =  0.000040 
CoL_Bus_Util = 0.000385 
Either_Row_CoL_Bus_Util = 0.000425 
Issued_on_Two_Bus_Simul_Util = 0.000000 
issued_two_Eff = 0.000000 
queue_avg = 0.000111 


dram_util_bins: 0 0 0 0 0 0 0 0 0 0
dram_eff_bins: 0 0 0 0 0 0 0 0 0 0
mrqq: max=1 avg=0.000111304
Memory Partition 20: 
Cache L2_bank_040:
MSHR contents

Cache L2_bank_041:
MSHR contents

In Dram Latency Queue (total = 0): 
DRAM[20]: 16 bks, busW=16 BL=2 CL=12, tRRD=3 tCCD=1, tRCD=12 tRAS=28 tRP=12 tRC=40
n_cmd=197656 n_nop=197570 n_act=7 n_pre=1 n_ref_event=0 n_req=78 n_rd=78 n_rd_L2_A=0 n_write=0 n_wr_bk=0 bw_util=0.0003946
n_activity=1113 dram_eff=0.07008
bk0: 0a 197656i bk1: 0a 197656i bk2: 18a 197644i bk3: 27a 197620i bk4: 7a 197644i bk5: 13a 197643i bk6: 8a 197644i bk7: 5a 197644i bk8: 0a 197656i bk9: 0a 197656i bk10: 0a 197656i bk11: 0a 197656i bk12: 0a 197656i bk13: 0a 197656i bk14: 0a 197656i bk15: 0a 197656i 

------------------------------------------------------------------------

Row_Buffer_Locality = 0.910256
Row_Buffer_Locality_read = 0.910256
Row_Buffer_Locality_write = -nan
Bank_Level_Parallism = 1.000000
Bank_Level_Parallism_Col = 1.000000
Bank_Level_Parallism_Ready = 1.000000
write_to_read_ratio_blp_rw_average = 0.000000
GrpLevelPara = 1.000000 

BW Util details:
bwutil = 0.000395 
total_CMD = 197656 
util_bw = 78 
Wasted_Col = 85 
Wasted_Row = 12 
Idle = 197481 

BW Util Bottlenecks: 
RCDc_limit = 84 
RCDWRc_limit = 0 
WTRc_limit = 0 
RTWc_limit = 0 
CCDLc_limit = 1 
rwq = 0 
CCDLc_limit_alone = 1 
WTRc_limit_alone = 0 
RTWc_limit_alone = 0 

Commands details: 
total_CMD = 197656 
n_nop = 197570 
Read = 78 
Write = 0 
L2_Alloc = 0 
L2_WB = 0 
n_act = 7 
n_pre = 1 
n_ref = 0 
n_req = 78 
total_req = 78 

Dual Bus Interface Util: 
issued_total_row = 8 
issued_total_col = 78 
Row_Bus_Util =  0.000040 
CoL_Bus_Util = 0.000395 
Either_Row_CoL_Bus_Util = 0.000435 
Issued_on_Two_Bus_Simul_Util = 0.000000 
issued_two_Eff = 0.000000 
queue_avg = 0.000035 


dram_util_bins: 0 0 0 0 0 0 0 0 0 0
dram_eff_bins: 0 0 0 0 0 0 0 0 0 0
mrqq: max=1 avg=3.54151e-05
Memory Partition 21: 
Cache L2_bank_042:
MSHR contents

Cache L2_bank_043:
MSHR contents

In Dram Latency Queue (total = 0): 
DRAM[21]: 16 bks, busW=16 BL=2 CL=12, tRRD=3 tCCD=1, tRCD=12 tRAS=28 tRP=12 tRC=40
n_cmd=197656 n_nop=197573 n_act=7 n_pre=1 n_ref_event=0 n_req=75 n_rd=75 n_rd_L2_A=0 n_write=0 n_wr_bk=0 bw_util=0.0003794
n_activity=1095 dram_eff=0.06849
bk0: 0a 197656i bk1: 0a 197656i bk2: 17a 197643i bk3: 24a 197619i bk4: 11a 197644i bk5: 11a 197644i bk6: 7a 197644i bk7: 5a 197644i bk8: 0a 197656i bk9: 0a 197656i bk10: 0a 197656i bk11: 0a 197656i bk12: 0a 197656i bk13: 0a 197656i bk14: 0a 197656i bk15: 0a 197656i 

------------------------------------------------------------------------

Row_Buffer_Locality = 0.906667
Row_Buffer_Locality_read = 0.906667
Row_Buffer_Locality_write = -nan
Bank_Level_Parallism = 1.000000
Bank_Level_Parallism_Col = 1.000000
Bank_Level_Parallism_Ready = 1.000000
write_to_read_ratio_blp_rw_average = 0.000000
GrpLevelPara = 1.000000 

BW Util details:
bwutil = 0.000379 
total_CMD = 197656 
util_bw = 75 
Wasted_Col = 86 
Wasted_Row = 12 
Idle = 197483 

BW Util Bottlenecks: 
RCDc_limit = 84 
RCDWRc_limit = 0 
WTRc_limit = 0 
RTWc_limit = 0 
CCDLc_limit = 2 
rwq = 0 
CCDLc_limit_alone = 2 
WTRc_limit_alone = 0 
RTWc_limit_alone = 0 

Commands details: 
total_CMD = 197656 
n_nop = 197573 
Read = 75 
Write = 0 
L2_Alloc = 0 
L2_WB = 0 
n_act = 7 
n_pre = 1 
n_ref = 0 
n_req = 75 
total_req = 75 

Dual Bus Interface Util: 
issued_total_row = 8 
issued_total_col = 75 
Row_Bus_Util =  0.000040 
CoL_Bus_Util = 0.000379 
Either_Row_CoL_Bus_Util = 0.000420 
Issued_on_Two_Bus_Simul_Util = 0.000000 
issued_two_Eff = 0.000000 
queue_avg = 0.000066 


dram_util_bins: 0 0 0 0 0 0 0 0 0 0
dram_eff_bins: 0 0 0 0 0 0 0 0 0 0
mrqq: max=1 avg=6.57708e-05
Memory Partition 22: 
Cache L2_bank_044:
MSHR contents

Cache L2_bank_045:
MSHR contents

In Dram Latency Queue (total = 0): 
DRAM[22]: 16 bks, busW=16 BL=2 CL=12, tRRD=3 tCCD=1, tRCD=12 tRAS=28 tRP=12 tRC=40
n_cmd=197656 n_nop=197576 n_act=7 n_pre=1 n_ref_event=0 n_req=72 n_rd=72 n_rd_L2_A=0 n_write=0 n_wr_bk=0 bw_util=0.0003643
n_activity=1071 dram_eff=0.06723
bk0: 0a 197656i bk1: 0a 197656i bk2: 15a 197643i bk3: 23a 197620i bk4: 9a 197643i bk5: 14a 197644i bk6: 7a 197644i bk7: 4a 197644i bk8: 0a 197656i bk9: 0a 197656i bk10: 0a 197656i bk11: 0a 197656i bk12: 0a 197656i bk13: 0a 197656i bk14: 0a 197656i bk15: 0a 197656i 

------------------------------------------------------------------------

Row_Buffer_Locality = 0.902778
Row_Buffer_Locality_read = 0.902778
Row_Buffer_Locality_write = -nan
Bank_Level_Parallism = 1.000000
Bank_Level_Parallism_Col = 1.000000
Bank_Level_Parallism_Ready = 1.000000
write_to_read_ratio_blp_rw_average = 0.000000
GrpLevelPara = 1.000000 

BW Util details:
bwutil = 0.000364 
total_CMD = 197656 
util_bw = 72 
Wasted_Col = 86 
Wasted_Row = 12 
Idle = 197486 

BW Util Bottlenecks: 
RCDc_limit = 84 
RCDWRc_limit = 0 
WTRc_limit = 0 
RTWc_limit = 0 
CCDLc_limit = 2 
rwq = 0 
CCDLc_limit_alone = 2 
WTRc_limit_alone = 0 
RTWc_limit_alone = 0 

Commands details: 
total_CMD = 197656 
n_nop = 197576 
Read = 72 
Write = 0 
L2_Alloc = 0 
L2_WB = 0 
n_act = 7 
n_pre = 1 
n_ref = 0 
n_req = 72 
total_req = 72 

Dual Bus Interface Util: 
issued_total_row = 8 
issued_total_col = 72 
Row_Bus_Util =  0.000040 
CoL_Bus_Util = 0.000364 
Either_Row_CoL_Bus_Util = 0.000405 
Issued_on_Two_Bus_Simul_Util = 0.000000 
issued_two_Eff = 0.000000 
queue_avg = 0.000056 


dram_util_bins: 0 0 0 0 0 0 0 0 0 0
dram_eff_bins: 0 0 0 0 0 0 0 0 0 0
mrqq: max=1 avg=5.56522e-05
Memory Partition 23: 
Cache L2_bank_046:
MSHR contents

Cache L2_bank_047:
MSHR contents

In Dram Latency Queue (total = 0): 
DRAM[23]: 16 bks, busW=16 BL=2 CL=12, tRRD=3 tCCD=1, tRCD=12 tRAS=28 tRP=12 tRC=40
n_cmd=197656 n_nop=197573 n_act=7 n_pre=1 n_ref_event=0 n_req=75 n_rd=75 n_rd_L2_A=0 n_write=0 n_wr_bk=0 bw_util=0.0003794
n_activity=1143 dram_eff=0.06562
bk0: 0a 197656i bk1: 0a 197656i bk2: 18a 197644i bk3: 22a 197618i bk4: 10a 197644i bk5: 14a 197644i bk6: 7a 197644i bk7: 4a 197644i bk8: 0a 197656i bk9: 0a 197656i bk10: 0a 197656i bk11: 0a 197656i bk12: 0a 197656i bk13: 0a 197656i bk14: 0a 197656i bk15: 0a 197656i 

------------------------------------------------------------------------

Row_Buffer_Locality = 0.906667
Row_Buffer_Locality_read = 0.906667
Row_Buffer_Locality_write = -nan
Bank_Level_Parallism = 1.000000
Bank_Level_Parallism_Col = 1.000000
Bank_Level_Parallism_Ready = 1.000000
write_to_read_ratio_blp_rw_average = 0.000000
GrpLevelPara = 1.000000 

BW Util details:
bwutil = 0.000379 
total_CMD = 197656 
util_bw = 75 
Wasted_Col = 86 
Wasted_Row = 12 
Idle = 197483 

BW Util Bottlenecks: 
RCDc_limit = 84 
RCDWRc_limit = 0 
WTRc_limit = 0 
RTWc_limit = 0 
CCDLc_limit = 2 
rwq = 0 
CCDLc_limit_alone = 2 
WTRc_limit_alone = 0 
RTWc_limit_alone = 0 

Commands details: 
total_CMD = 197656 
n_nop = 197573 
Read = 75 
Write = 0 
L2_Alloc = 0 
L2_WB = 0 
n_act = 7 
n_pre = 1 
n_ref = 0 
n_req = 75 
total_req = 75 

Dual Bus Interface Util: 
issued_total_row = 8 
issued_total_col = 75 
Row_Bus_Util =  0.000040 
CoL_Bus_Util = 0.000379 
Either_Row_CoL_Bus_Util = 0.000420 
Issued_on_Two_Bus_Simul_Util = 0.000000 
issued_two_Eff = 0.000000 
queue_avg = 0.000000 


dram_util_bins: 0 0 0 0 0 0 0 0 0 0
dram_eff_bins: 0 0 0 0 0 0 0 0 0 0
mrqq: max=0 avg=0

========= L2 cache stats =========
L2_cache_bank[0]: Access = 15727, Miss = 510, Miss_rate = 0.032, Pending_hits = 74, Reservation_fails = 979
L2_cache_bank[1]: Access = 25182, Miss = 446, Miss_rate = 0.018, Pending_hits = 222, Reservation_fails = 5890
L2_cache_bank[2]: Access = 15698, Miss = 518, Miss_rate = 0.033, Pending_hits = 68, Reservation_fails = 825
L2_cache_bank[3]: Access = 25104, Miss = 456, Miss_rate = 0.018, Pending_hits = 237, Reservation_fails = 5816
L2_cache_bank[4]: Access = 15607, Miss = 508, Miss_rate = 0.033, Pending_hits = 75, Reservation_fails = 769
L2_cache_bank[5]: Access = 25098, Miss = 442, Miss_rate = 0.018, Pending_hits = 217, Reservation_fails = 5524
L2_cache_bank[6]: Access = 15897, Miss = 518, Miss_rate = 0.033, Pending_hits = 73, Reservation_fails = 1521
L2_cache_bank[7]: Access = 25036, Miss = 452, Miss_rate = 0.018, Pending_hits = 226, Reservation_fails = 5886
L2_cache_bank[8]: Access = 16027, Miss = 600, Miss_rate = 0.037, Pending_hits = 97, Reservation_fails = 1434
L2_cache_bank[9]: Access = 24832, Miss = 460, Miss_rate = 0.019, Pending_hits = 238, Reservation_fails = 6750
L2_cache_bank[10]: Access = 16003, Miss = 602, Miss_rate = 0.038, Pending_hits = 150, Reservation_fails = 3632
L2_cache_bank[11]: Access = 24982, Miss = 446, Miss_rate = 0.018, Pending_hits = 219, Reservation_fails = 5737
L2_cache_bank[12]: Access = 15993, Miss = 590, Miss_rate = 0.037, Pending_hits = 122, Reservation_fails = 2168
L2_cache_bank[13]: Access = 24905, Miss = 453, Miss_rate = 0.018, Pending_hits = 237, Reservation_fails = 6069
L2_cache_bank[14]: Access = 15973, Miss = 538, Miss_rate = 0.034, Pending_hits = 107, Reservation_fails = 1314
L2_cache_bank[15]: Access = 24699, Miss = 432, Miss_rate = 0.017, Pending_hits = 215, Reservation_fails = 5830
L2_cache_bank[16]: Access = 6366, Miss = 168, Miss_rate = 0.026, Pending_hits = 17, Reservation_fails = 0
L2_cache_bank[17]: Access = 14818, Miss = 272, Miss_rate = 0.018, Pending_hits = 141, Reservation_fails = 4232
L2_cache_bank[18]: Access = 6407, Miss = 172, Miss_rate = 0.027, Pending_hits = 27, Reservation_fails = 291
L2_cache_bank[19]: Access = 14934, Miss = 272, Miss_rate = 0.018, Pending_hits = 144, Reservation_fails = 4281
L2_cache_bank[20]: Access = 6486, Miss = 244, Miss_rate = 0.038, Pending_hits = 35, Reservation_fails = 1049
L2_cache_bank[21]: Access = 15012, Miss = 278, Miss_rate = 0.019, Pending_hits = 153, Reservation_fails = 4273
L2_cache_bank[22]: Access = 6338, Miss = 174, Miss_rate = 0.027, Pending_hits = 26, Reservation_fails = 520
L2_cache_bank[23]: Access = 14978, Miss = 272, Miss_rate = 0.018, Pending_hits = 144, Reservation_fails = 4197
L2_cache_bank[24]: Access = 6434, Miss = 160, Miss_rate = 0.025, Pending_hits = 16, Reservation_fails = 277
L2_cache_bank[25]: Access = 14977, Miss = 266, Miss_rate = 0.018, Pending_hits = 134, Reservation_fails = 3822
L2_cache_bank[26]: Access = 6392, Miss = 166, Miss_rate = 0.026, Pending_hits = 19, Reservation_fails = 166
L2_cache_bank[27]: Access = 15050, Miss = 280, Miss_rate = 0.019, Pending_hits = 156, Reservation_fails = 4519
L2_cache_bank[28]: Access = 6395, Miss = 168, Miss_rate = 0.026, Pending_hits = 26, Reservation_fails = 412
L2_cache_bank[29]: Access = 15166, Miss = 276, Miss_rate = 0.018, Pending_hits = 147, Reservation_fails = 4253
L2_cache_bank[30]: Access = 6388, Miss = 166, Miss_rate = 0.026, Pending_hits = 28, Reservation_fails = 404
L2_cache_bank[31]: Access = 14891, Miss = 274, Miss_rate = 0.018, Pending_hits = 147, Reservation_fails = 4188
L2_cache_bank[32]: Access = 8816, Miss = 250, Miss_rate = 0.028, Pending_hits = 35, Reservation_fails = 407
L2_cache_bank[33]: Access = 11475, Miss = 212, Miss_rate = 0.018, Pending_hits = 104, Reservation_fails = 3039
L2_cache_bank[34]: Access = 8789, Miss = 258, Miss_rate = 0.029, Pending_hits = 45, Reservation_fails = 670
L2_cache_bank[35]: Access = 11347, Miss = 207, Miss_rate = 0.018, Pending_hits = 101, Reservation_fails = 3197
L2_cache_bank[36]: Access = 8835, Miss = 266, Miss_rate = 0.030, Pending_hits = 56, Reservation_fails = 745
L2_cache_bank[37]: Access = 11390, Miss = 204, Miss_rate = 0.018, Pending_hits = 96, Reservation_fails = 2910
L2_cache_bank[38]: Access = 8814, Miss = 262, Miss_rate = 0.030, Pending_hits = 27, Reservation_fails = 588
L2_cache_bank[39]: Access = 11464, Miss = 210, Miss_rate = 0.018, Pending_hits = 105, Reservation_fails = 3034
L2_cache_bank[40]: Access = 8833, Miss = 274, Miss_rate = 0.031, Pending_hits = 59, Reservation_fails = 671
L2_cache_bank[41]: Access = 11095, Miss = 194, Miss_rate = 0.017, Pending_hits = 93, Reservation_fails = 2849
L2_cache_bank[42]: Access = 8763, Miss = 266, Miss_rate = 0.030, Pending_hits = 51, Reservation_fails = 777
L2_cache_bank[43]: Access = 10498, Miss = 188, Miss_rate = 0.018, Pending_hits = 98, Reservation_fails = 2798
L2_cache_bank[44]: Access = 8808, Miss = 260, Miss_rate = 0.030, Pending_hits = 44, Reservation_fails = 633
L2_cache_bank[45]: Access = 11218, Miss = 196, Miss_rate = 0.017, Pending_hits = 92, Reservation_fails = 2529
L2_cache_bank[46]: Access = 8775, Miss = 264, Miss_rate = 0.030, Pending_hits = 55, Reservation_fails = 662
L2_cache_bank[47]: Access = 11206, Miss = 198, Miss_rate = 0.018, Pending_hits = 103, Reservation_fails = 3060
L2_total_cache_accesses = 657921
L2_total_cache_misses = 15288
L2_total_cache_miss_rate = 0.0232
L2_total_cache_pending_hits = 5101
L2_total_cache_reservation_fails = 125597
L2_total_cache_breakdown:
	L2_cache_stats_breakdown[GLOBAL_ACC_R][HIT] = 637252
	L2_cache_stats_breakdown[GLOBAL_ACC_R][HIT_RESERVED] = 5101
	L2_cache_stats_breakdown[GLOBAL_ACC_R][MISS] = 0
	L2_cache_stats_breakdown[GLOBAL_ACC_R][RESERVATION_FAIL] = 125597
	L2_cache_stats_breakdown[GLOBAL_ACC_R][SECTOR_MISS] = 2457
	L2_cache_stats_breakdown[LOCAL_ACC_R][HIT] = 0
	L2_cache_stats_breakdown[LOCAL_ACC_R][HIT_RESERVED] = 0
	L2_cache_stats_breakdown[LOCAL_ACC_R][MISS] = 0
	L2_cache_stats_breakdown[LOCAL_ACC_R][RESERVATION_FAIL] = 0
	L2_cache_stats_breakdown[LOCAL_ACC_R][SECTOR_MISS] = 0
	L2_cache_stats_breakdown[CONST_ACC_R][HIT] = 0
	L2_cache_stats_breakdown[CONST_ACC_R][HIT_RESERVED] = 0
	L2_cache_stats_breakdown[CONST_ACC_R][MISS] = 0
	L2_cache_stats_breakdown[CONST_ACC_R][RESERVATION_FAIL] = 0
	L2_cache_stats_breakdown[CONST_ACC_R][SECTOR_MISS] = 0
	L2_cache_stats_breakdown[TEXTURE_ACC_R][HIT] = 0
	L2_cache_stats_breakdown[TEXTURE_ACC_R][HIT_RESERVED] = 0
	L2_cache_stats_breakdown[TEXTURE_ACC_R][MISS] = 0
	L2_cache_stats_breakdown[TEXTURE_ACC_R][RESERVATION_FAIL] = 0
	L2_cache_stats_breakdown[TEXTURE_ACC_R][SECTOR_MISS] = 0
	L2_cache_stats_breakdown[GLOBAL_ACC_W][HIT] = 280
	L2_cache_stats_breakdown[GLOBAL_ACC_W][HIT_RESERVED] = 0
	L2_cache_stats_breakdown[GLOBAL_ACC_W][MISS] = 2070
	L2_cache_stats_breakdown[GLOBAL_ACC_W][RESERVATION_FAIL] = 0
	L2_cache_stats_breakdown[GLOBAL_ACC_W][SECTOR_MISS] = 10761
	L2_cache_stats_breakdown[LOCAL_ACC_W][HIT] = 0
	L2_cache_stats_breakdown[LOCAL_ACC_W][HIT_RESERVED] = 0
	L2_cache_stats_breakdown[LOCAL_ACC_W][MISS] = 0
	L2_cache_stats_breakdown[LOCAL_ACC_W][RESERVATION_FAIL] = 0
	L2_cache_stats_breakdown[LOCAL_ACC_W][SECTOR_MISS] = 0
	L2_cache_stats_breakdown[L1_WRBK_ACC][HIT] = 0
	L2_cache_stats_breakdown[L1_WRBK_ACC][HIT_RESERVED] = 0
	L2_cache_stats_breakdown[L1_WRBK_ACC][MISS] = 0
	L2_cache_stats_breakdown[L1_WRBK_ACC][RESERVATION_FAIL] = 0
	L2_cache_stats_breakdown[L1_WRBK_ACC][SECTOR_MISS] = 0
	L2_cache_stats_breakdown[L2_WRBK_ACC][HIT] = 0
	L2_cache_stats_breakdown[L2_WRBK_ACC][HIT_RESERVED] = 0
	L2_cache_stats_breakdown[L2_WRBK_ACC][MISS] = 0
	L2_cache_stats_breakdown[L2_WRBK_ACC][RESERVATION_FAIL] = 0
	L2_cache_stats_breakdown[L2_WRBK_ACC][SECTOR_MISS] = 0
	L2_cache_stats_breakdown[INST_ACC_R][HIT] = 0
	L2_cache_stats_breakdown[INST_ACC_R][HIT_RESERVED] = 0
	L2_cache_stats_breakdown[INST_ACC_R][MISS] = 0
	L2_cache_stats_breakdown[INST_ACC_R][RESERVATION_FAIL] = 0
	L2_cache_stats_breakdown[INST_ACC_R][SECTOR_MISS] = 0
	L2_cache_stats_breakdown[L1_WR_ALLOC_R][HIT] = 0
	L2_cache_stats_breakdown[L1_WR_ALLOC_R][HIT_RESERVED] = 0
	L2_cache_stats_breakdown[L1_WR_ALLOC_R][MISS] = 0
	L2_cache_stats_breakdown[L1_WR_ALLOC_R][RESERVATION_FAIL] = 0
	L2_cache_stats_breakdown[L1_WR_ALLOC_R][SECTOR_MISS] = 0
	L2_cache_stats_breakdown[L2_WR_ALLOC_R][HIT] = 0
	L2_cache_stats_breakdown[L2_WR_ALLOC_R][HIT_RESERVED] = 0
	L2_cache_stats_breakdown[L2_WR_ALLOC_R][MISS] = 0
	L2_cache_stats_breakdown[L2_WR_ALLOC_R][RESERVATION_FAIL] = 0
	L2_cache_stats_breakdown[L2_WR_ALLOC_R][SECTOR_MISS] = 0
	L2_cache_stats_breakdown[GLOBAL_ACC_R][TOTAL_ACCESS] = 644810
	L2_cache_stats_breakdown[GLOBAL_ACC_W][TOTAL_ACCESS] = 13111
L2_total_cache_reservation_fail_breakdown:
	L2_cache_stats_fail_breakdown[GLOBAL_ACC_R][MSHR_MERGE_ENRTY_FAIL] = 125597
L2_cache_data_port_util = 0.048
L2_cache_fill_port_util = 0.000

icnt_total_pkts_mem_to_simt=657921
icnt_total_pkts_simt_to_mem=657921
LD_mem_lat_dist  0 0 0 0 0 0 0 0 0 0 0 0 0 0 0 0 0 0 0 0 0 0 0 0 0 0 0
ST_mem_lat_dist  0 0 0 0 0 0 0 0 0 0 0 0 0 0 0 0 0 0 0 0 0 0 0 0 0 0 0
----------------------------Interconnect-DETAILS--------------------------------
Req_Network_injected_packets_num = 657921
Req_Network_cycles = 279045
Req_Network_injected_packets_per_cycle =       2.3578 
Req_Network_conflicts_per_cycle =       1.2664
Req_Network_conflicts_per_cycle_util =       1.8340
Req_Bank_Level_Parallism =       3.4147
Req_Network_in_buffer_full_per_cycle =       0.0000
Req_Network_in_buffer_avg_util =       6.9185
Req_Network_out_buffer_full_per_cycle =       0.0000
Req_Network_out_buffer_avg_util =       0.0882

Reply_Network_injected_packets_num = 657921
Reply_Network_cycles = 279045
Reply_Network_injected_packets_per_cycle =        2.3578
Reply_Network_conflicts_per_cycle =        0.3031
Reply_Network_conflicts_per_cycle_util =       0.4376
Reply_Bank_Level_Parallism =       3.4037
Reply_Network_in_buffer_full_per_cycle =       0.0000
Reply_Network_in_buffer_avg_util =       0.0245
Reply_Network_out_buffer_full_per_cycle =       0.0000
Reply_Network_out_buffer_avg_util =       0.0589
----------------------------END-of-Interconnect-DETAILS-------------------------


gpgpu_simulation_time = 0 days, 0 hrs, 24 min, 29 sec (1469 sec)
gpgpu_simulation_rate = 47567 (inst/sec)
gpgpu_simulation_rate = 189 (cycle/sec)
gpgpu_silicon_slowdown = 6349206x
7 2 1 0 4 1 4 9 6 9 0 6 9 0 1 5 9 7 3 4 9 6 6 5 4 0 7 4
GPGPU-Sim: *** exit detected ***
